/*---------------------------------------------------------------------------*\
| =========                 |                                                 |
| \\      /  F ield         | OpenFOAM: The Open Source CFD Toolbox           |
|  \\    /   O peration     | Version:  2506                                  |
|   \\  /    A nd           | Website:  www.openfoam.com                      |
|    \\/     M anipulation  |                                                 |
\*---------------------------------------------------------------------------*/
Build  : _615aae61-20250627 OPENFOAM=2506 version=2506
Arch   : "LSB;label=32;scalar=64"
Exec   : icoFoam
Date   : Dec 31 2025
Time   : 00:13:39
Host   : 7f0404442a5b
PID    : 354
I/O    : uncollated
Case   : /home/openfoam/Projects/Cavity/veryhighRe
nProcs : 1
trapFpe: Floating point exception trapping enabled (FOAM_SIGFPE).
fileModificationChecking : Monitoring run-time modified files using timeStampMaster (fileModificationSkew 5, maxFileModificationPolls 20)
allowSystemOperations : Allowing user-supplied system call operations

// * * * * * * * * * * * * * * * * * * * * * * * * * * * * * * * * * * * * * //
Create time

Create mesh for time = 0


PISO: Operating solver in PISO mode

Reading transportProperties

Reading field p

Reading field U

Reading/calculating face flux field phi


Starting time loop

Time = 0.05

Courant Number mean: 0 max: 0
smoothSolver:  Solving for Ux, Initial residual = 1, Final residual = 1.2122e-06, No Iterations 2
smoothSolver:  Solving for Uy, Initial residual = 0, Final residual = 0, No Iterations 0
DICPCG:  Solving for p, Initial residual = 1, Final residual = 0.0288921, No Iterations 23
time step continuity errors : sum local = 5.58331e-06, global = 1.83037e-20, cumulative = 1.83037e-20
DICPCG:  Solving for p, Initial residual = 0.0440146, Final residual = 7.82676e-07, No Iterations 32
time step continuity errors : sum local = 3.35175e-10, global = -9.36038e-21, cumulative = 8.94336e-21
ExecutionTime = 0.02 s  ClockTime = 0 s

Time = 0.1

Courant Number mean: 0.00409411 max: 0.033996
smoothSolver:  Solving for Ux, Initial residual = 0.317668, Final residual = 3.27593e-07, No Iterations 2
smoothSolver:  Solving for Uy, Initial residual = 0.330318, Final residual = 5.62032e-07, No Iterations 2
DICPCG:  Solving for p, Initial residual = 0.105372, Final residual = 0.0041418, No Iterations 9
time step continuity errors : sum local = 2.04225e-06, global = -9.01112e-22, cumulative = 8.04225e-21
DICPCG:  Solving for p, Initial residual = 0.00547176, Final residual = 6.51609e-07, No Iterations 27
time step continuity errors : sum local = 3.28103e-10, global = -5.34293e-20, cumulative = -4.5387e-20
ExecutionTime = 0.02 s  ClockTime = 0 s

Time = 0.15

Courant Number mean: 0.00797758 max: 0.0661429
smoothSolver:  Solving for Ux, Initial residual = 0.184412, Final residual = 1.64955e-07, No Iterations 2
smoothSolver:  Solving for Uy, Initial residual = 0.195662, Final residual = 3.14289e-07, No Iterations 2
DICPCG:  Solving for p, Initial residual = 0.0643846, Final residual = 0.00235809, No Iterations 10
time step continuity errors : sum local = 1.42255e-06, global = 4.34203e-21, cumulative = -4.1045e-20
DICPCG:  Solving for p, Initial residual = 0.00347678, Final residual = 8.94031e-07, No Iterations 25
time step continuity errors : sum local = 5.13842e-10, global = -9.41001e-21, cumulative = -5.0455e-20
ExecutionTime = 0.02 s  ClockTime = 0 s

Time = 0.2

Courant Number mean: 0.0116632 max: 0.0965481
smoothSolver:  Solving for Ux, Initial residual = 0.127766, Final residual = 2.04251e-07, No Iterations 2
smoothSolver:  Solving for Uy, Initial residual = 0.137557, Final residual = 2.09174e-07, No Iterations 2
DICPCG:  Solving for p, Initial residual = 0.0503036, Final residual = 0.00123933, No Iterations 11
time step continuity errors : sum local = 9.10625e-07, global = 1.21974e-19, cumulative = 7.15193e-20
DICPCG:  Solving for p, Initial residual = 0.00265512, Final residual = 7.93746e-07, No Iterations 26
time step continuity errors : sum local = 4.92788e-10, global = 3.6343e-20, cumulative = 1.07862e-19
ExecutionTime = 0.02 s  ClockTime = 0 s

Time = 0.25

Courant Number mean: 0.0151624 max: 0.125312
smoothSolver:  Solving for Ux, Initial residual = 0.0965155, Final residual = 3.61727e-07, No Iterations 2
smoothSolver:  Solving for Uy, Initial residual = 0.105149, Final residual = 1.57869e-07, No Iterations 2
DICPCG:  Solving for p, Initial residual = 0.0504694, Final residual = 0.00249733, No Iterations 10
time step continuity errors : sum local = 1.76806e-06, global = 2.86142e-20, cumulative = 1.36477e-19
DICPCG:  Solving for p, Initial residual = 0.00390668, Final residual = 4.34513e-07, No Iterations 27
time step continuity errors : sum local = 2.94402e-10, global = -2.23273e-20, cumulative = 1.14149e-19
ExecutionTime = 0.02 s  ClockTime = 0 s

Time = 0.3

Courant Number mean: 0.0184851 max: 0.152524
smoothSolver:  Solving for Ux, Initial residual = 0.0768332, Final residual = 6.27347e-07, No Iterations 2
smoothSolver:  Solving for Uy, Initial residual = 0.0845165, Final residual = 1.35632e-07, No Iterations 2
DICPCG:  Solving for p, Initial residual = 0.0528902, Final residual = 0.00241722, No Iterations 10
time step continuity errors : sum local = 1.83519e-06, global = 7.91547e-21, cumulative = 1.22065e-19
DICPCG:  Solving for p, Initial residual = 0.00403508, Final residual = 6.38743e-07, No Iterations 27
time step continuity errors : sum local = 4.66859e-10, global = 7.1561e-20, cumulative = 1.93626e-19
ExecutionTime = 0.02 s  ClockTime = 0 s

Time = 0.35

Courant Number mean: 0.0216406 max: 0.178345
smoothSolver:  Solving for Ux, Initial residual = 0.0633385, Final residual = 9.87316e-07, No Iterations 2
smoothSolver:  Solving for Uy, Initial residual = 0.0702551, Final residual = 1.32373e-07, No Iterations 2
DICPCG:  Solving for p, Initial residual = 0.0540672, Final residual = 0.00257158, No Iterations 9
time step continuity errors : sum local = 2.05173e-06, global = 1.57067e-19, cumulative = 3.50693e-19
DICPCG:  Solving for p, Initial residual = 0.00452729, Final residual = 5.01517e-07, No Iterations 28
time step continuity errors : sum local = 3.94098e-10, global = 4.43766e-20, cumulative = 3.95069e-19
ExecutionTime = 0.03 s  ClockTime = 0 s

Time = 0.4

Courant Number mean: 0.0246369 max: 0.20282
smoothSolver:  Solving for Ux, Initial residual = 0.0537921, Final residual = 1.42577e-06, No Iterations 2
smoothSolver:  Solving for Uy, Initial residual = 0.0598666, Final residual = 1.46493e-07, No Iterations 2
DICPCG:  Solving for p, Initial residual = 0.0545713, Final residual = 0.00242391, No Iterations 9
time step continuity errors : sum local = 2.08048e-06, global = -4.81018e-20, cumulative = 3.46968e-19
DICPCG:  Solving for p, Initial residual = 0.00458264, Final residual = 5.18207e-07, No Iterations 28
time step continuity errors : sum local = 4.38402e-10, global = -1.03285e-19, cumulative = 2.43683e-19
ExecutionTime = 0.03 s  ClockTime = 0 s

Time = 0.45

Courant Number mean: 0.0274813 max: 0.226002
smoothSolver:  Solving for Ux, Initial residual = 0.0466135, Final residual = 1.92604e-06, No Iterations 2
smoothSolver:  Solving for Uy, Initial residual = 0.0520205, Final residual = 1.76405e-07, No Iterations 2
DICPCG:  Solving for p, Initial residual = 0.054524, Final residual = 0.00227308, No Iterations 9
time step continuity errors : sum local = 2.10747e-06, global = 1.42338e-20, cumulative = 2.57916e-19
DICPCG:  Solving for p, Initial residual = 0.00460874, Final residual = 5.03875e-07, No Iterations 28
time step continuity errors : sum local = 4.62526e-10, global = -2.54216e-19, cumulative = 3.70068e-21
ExecutionTime = 0.03 s  ClockTime = 0 s

Time = 0.5

Courant Number mean: 0.0301799 max: 0.247947
smoothSolver:  Solving for Ux, Initial residual = 0.041025, Final residual = 2.47104e-06, No Iterations 2
smoothSolver:  Solving for Uy, Initial residual = 0.0458781, Final residual = 2.20972e-07, No Iterations 2
DICPCG:  Solving for p, Initial residual = 0.0536977, Final residual = 0.00212083, No Iterations 9
time step continuity errors : sum local = 2.13022e-06, global = -4.97126e-20, cumulative = -4.60119e-20
DICPCG:  Solving for p, Initial residual = 0.00462576, Final residual = 9.26802e-07, No Iterations 27
time step continuity errors : sum local = 9.22309e-10, global = -8.78797e-20, cumulative = -1.33892e-19
ExecutionTime = 0.03 s  ClockTime = 0 s

Time = 0.55

Courant Number mean: 0.0327392 max: 0.268878
smoothSolver:  Solving for Ux, Initial residual = 0.0365548, Final residual = 3.04357e-06, No Iterations 2
smoothSolver:  Solving for Uy, Initial residual = 0.0410313, Final residual = 2.79201e-07, No Iterations 2
DICPCG:  Solving for p, Initial residual = 0.0525215, Final residual = 0.00197883, No Iterations 9
time step continuity errors : sum local = 2.15194e-06, global = 6.62048e-20, cumulative = -6.76867e-20
DICPCG:  Solving for p, Initial residual = 0.00464172, Final residual = 7.58219e-07, No Iterations 27
time step continuity errors : sum local = 8.17869e-10, global = 2.33384e-19, cumulative = 1.65697e-19
ExecutionTime = 0.03 s  ClockTime = 0 s

Time = 0.6

Courant Number mean: 0.0351637 max: 0.288757
smoothSolver:  Solving for Ux, Initial residual = 0.0328759, Final residual = 3.62715e-06, No Iterations 2
smoothSolver:  Solving for Uy, Initial residual = 0.0370687, Final residual = 3.47627e-07, No Iterations 2
DICPCG:  Solving for p, Initial residual = 0.0515091, Final residual = 0.00184836, No Iterations 9
time step continuity errors : sum local = 2.17431e-06, global = -1.72813e-19, cumulative = -7.11601e-21
DICPCG:  Solving for p, Initial residual = 0.00462333, Final residual = 9.24283e-07, No Iterations 26
time step continuity errors : sum local = 1.07772e-09, global = 1.38437e-19, cumulative = 1.31321e-19
ExecutionTime = 0.03 s  ClockTime = 0 s

Time = 0.65

Courant Number mean: 0.0374924 max: 0.307612
smoothSolver:  Solving for Ux, Initial residual = 0.0297836, Final residual = 4.20656e-06, No Iterations 2
smoothSolver:  Solving for Uy, Initial residual = 0.0337968, Final residual = 4.2716e-07, No Iterations 2
DICPCG:  Solving for p, Initial residual = 0.0508149, Final residual = 0.00251021, No Iterations 8
time step continuity errors : sum local = 3.10017e-06, global = -1.19392e-19, cumulative = 1.19286e-20
DICPCG:  Solving for p, Initial residual = 0.00465021, Final residual = 6.16952e-07, No Iterations 27
time step continuity errors : sum local = 7.75272e-10, global = -1.39469e-19, cumulative = -1.27541e-19
ExecutionTime = 0.03 s  ClockTime = 0 s

Time = 0.7

Courant Number mean: 0.0397374 max: 0.325755
smoothSolver:  Solving for Ux, Initial residual = 0.0271352, Final residual = 4.76745e-06, No Iterations 2
smoothSolver:  Solving for Uy, Initial residual = 0.0310605, Final residual = 5.21367e-07, No Iterations 2
DICPCG:  Solving for p, Initial residual = 0.0504444, Final residual = 0.0023317, No Iterations 8
time step continuity errors : sum local = 3.10951e-06, global = -8.68135e-20, cumulative = -2.14354e-19
DICPCG:  Solving for p, Initial residual = 0.00457159, Final residual = 8.73068e-07, No Iterations 26
time step continuity errors : sum local = 1.18905e-09, global = 9.76073e-20, cumulative = -1.16747e-19
ExecutionTime = 0.03 s  ClockTime = 0 s

Time = 0.75

Courant Number mean: 0.0418911 max: 0.343071
smoothSolver:  Solving for Ux, Initial residual = 0.0248018, Final residual = 5.29358e-06, No Iterations 2
smoothSolver:  Solving for Uy, Initial residual = 0.0287561, Final residual = 6.54003e-07, No Iterations 2
DICPCG:  Solving for p, Initial residual = 0.0514716, Final residual = 0.00218313, No Iterations 8
time step continuity errors : sum local = 3.16313e-06, global = -6.28941e-20, cumulative = -1.79641e-19
DICPCG:  Solving for p, Initial residual = 0.00453401, Final residual = 7.52866e-07, No Iterations 25
time step continuity errors : sum local = 1.12322e-09, global = -1.76646e-19, cumulative = -3.56287e-19
ExecutionTime = 0.03 s  ClockTime = 0 s

Time = 0.8

Courant Number mean: 0.043955 max: 0.359956
smoothSolver:  Solving for Ux, Initial residual = 0.0227259, Final residual = 5.77648e-06, No Iterations 2
smoothSolver:  Solving for Uy, Initial residual = 0.0267814, Final residual = 8.03281e-07, No Iterations 2
DICPCG:  Solving for p, Initial residual = 0.0424616, Final residual = 0.00204859, No Iterations 8
time step continuity errors : sum local = 3.19803e-06, global = -1.97624e-19, cumulative = -5.53911e-19
DICPCG:  Solving for p, Initial residual = 0.00424588, Final residual = 9.22081e-07, No Iterations 25
time step continuity errors : sum local = 1.49283e-09, global = -1.94156e-20, cumulative = -5.73326e-19
ExecutionTime = 0.03 s  ClockTime = 0 s

Time = 0.85

Courant Number mean: 0.0459366 max: 0.376559
smoothSolver:  Solving for Ux, Initial residual = 0.0209281, Final residual = 6.20817e-06, No Iterations 2
smoothSolver:  Solving for Uy, Initial residual = 0.0251005, Final residual = 9.59442e-07, No Iterations 2
DICPCG:  Solving for p, Initial residual = 0.0393771, Final residual = 0.00186387, No Iterations 8
time step continuity errors : sum local = 3.09892e-06, global = 9.09761e-20, cumulative = -4.8235e-19
DICPCG:  Solving for p, Initial residual = 0.00419375, Final residual = 9.23541e-07, No Iterations 25
time step continuity errors : sum local = 1.56737e-09, global = -5.33366e-20, cumulative = -5.35687e-19
ExecutionTime = 0.03 s  ClockTime = 0 s

Time = 0.9

Courant Number mean: 0.0478374 max: 0.39241
smoothSolver:  Solving for Ux, Initial residual = 0.0192976, Final residual = 6.56454e-06, No Iterations 2
smoothSolver:  Solving for Uy, Initial residual = 0.0237397, Final residual = 1.09879e-06, No Iterations 2
DICPCG:  Solving for p, Initial residual = 0.0390802, Final residual = 0.00180005, No Iterations 8
time step continuity errors : sum local = 3.19734e-06, global = 4.39544e-20, cumulative = -4.91732e-19
DICPCG:  Solving for p, Initial residual = 0.00413002, Final residual = 3.47599e-07, No Iterations 27
time step continuity errors : sum local = 6.27431e-10, global = 2.01673e-19, cumulative = -2.90059e-19
ExecutionTime = 0.03 s  ClockTime = 0 s

Time = 0.95

Courant Number mean: 0.0496936 max: 0.407629
smoothSolver:  Solving for Ux, Initial residual = 0.0178018, Final residual = 6.85946e-06, No Iterations 2
smoothSolver:  Solving for Uy, Initial residual = 0.022495, Final residual = 1.24433e-06, No Iterations 2
DICPCG:  Solving for p, Initial residual = 0.0387855, Final residual = 0.00169673, No Iterations 8
time step continuity errors : sum local = 3.21497e-06, global = 2.9281e-19, cumulative = 2.75065e-21
DICPCG:  Solving for p, Initial residual = 0.0043656, Final residual = 3.79676e-07, No Iterations 27
time step continuity errors : sum local = 7.38517e-10, global = 3.61802e-19, cumulative = 3.64553e-19
ExecutionTime = 0.03 s  ClockTime = 0 s

Time = 1

Courant Number mean: 0.051491 max: 0.422953
smoothSolver:  Solving for Ux, Initial residual = 0.0164377, Final residual = 7.06248e-06, No Iterations 2
smoothSolver:  Solving for Uy, Initial residual = 0.0215106, Final residual = 1.3693e-06, No Iterations 2
DICPCG:  Solving for p, Initial residual = 0.0354515, Final residual = 0.00160858, No Iterations 8
time step continuity errors : sum local = 3.24481e-06, global = 1.39181e-19, cumulative = 5.03734e-19
DICPCG:  Solving for p, Initial residual = 0.00412729, Final residual = 3.52096e-07, No Iterations 27
time step continuity errors : sum local = 7.1951e-10, global = -1.63371e-19, cumulative = 3.40362e-19
ExecutionTime = 0.04 s  ClockTime = 0 s

Time = 1.05

Courant Number mean: 0.0532191 max: 0.437559
smoothSolver:  Solving for Ux, Initial residual = 0.0151909, Final residual = 7.19917e-06, No Iterations 2
smoothSolver:  Solving for Uy, Initial residual = 0.0205394, Final residual = 1.47487e-06, No Iterations 2
DICPCG:  Solving for p, Initial residual = 0.0349874, Final residual = 0.00150403, No Iterations 8
time step continuity errors : sum local = 3.21714e-06, global = 1.02175e-19, cumulative = 4.42538e-19
DICPCG:  Solving for p, Initial residual = 0.00422634, Final residual = 3.5757e-07, No Iterations 27
time step continuity errors : sum local = 7.80032e-10, global = -6.61672e-23, cumulative = 4.42471e-19
ExecutionTime = 0.04 s  ClockTime = 0 s

Time = 1.1

Courant Number mean: 0.0548801 max: 0.451453
smoothSolver:  Solving for Ux, Initial residual = 0.014076, Final residual = 7.25128e-06, No Iterations 2
smoothSolver:  Solving for Uy, Initial residual = 0.0197427, Final residual = 1.54706e-06, No Iterations 2
DICPCG:  Solving for p, Initial residual = 0.0311674, Final residual = 0.00137495, No Iterations 8
time step continuity errors : sum local = 3.09036e-06, global = -4.18269e-19, cumulative = 2.42023e-20
DICPCG:  Solving for p, Initial residual = 0.00374356, Final residual = 7.77824e-07, No Iterations 25
time step continuity errors : sum local = 1.76184e-09, global = 1.67726e-19, cumulative = 1.91928e-19
ExecutionTime = 0.04 s  ClockTime = 0 s

Time = 1.15

Courant Number mean: 0.0564714 max: 0.464608
smoothSolver:  Solving for Ux, Initial residual = 0.0130881, Final residual = 7.24453e-06, No Iterations 2
smoothSolver:  Solving for Uy, Initial residual = 0.0188322, Final residual = 1.68164e-06, No Iterations 2
DICPCG:  Solving for p, Initial residual = 0.0322132, Final residual = 0.00133362, No Iterations 8
time step continuity errors : sum local = 3.13119e-06, global = -2.62809e-20, cumulative = 1.65647e-19
DICPCG:  Solving for p, Initial residual = 0.0038184, Final residual = 7.90502e-07, No Iterations 25
time step continuity errors : sum local = 1.88464e-09, global = 2.67649e-19, cumulative = 4.33296e-19
ExecutionTime = 0.04 s  ClockTime = 0 s

Time = 1.2

Courant Number mean: 0.0579874 max: 0.477032
smoothSolver:  Solving for Ux, Initial residual = 0.0122674, Final residual = 7.16746e-06, No Iterations 2
smoothSolver:  Solving for Uy, Initial residual = 0.0181078, Final residual = 1.77727e-06, No Iterations 2
DICPCG:  Solving for p, Initial residual = 0.0292801, Final residual = 0.00121424, No Iterations 8
time step continuity errors : sum local = 2.99486e-06, global = 2.11258e-19, cumulative = 6.44555e-19
DICPCG:  Solving for p, Initial residual = 0.00364719, Final residual = 7.13926e-07, No Iterations 26
time step continuity errors : sum local = 1.7778e-09, global = -1.02782e-19, cumulative = 5.41773e-19
ExecutionTime = 0.04 s  ClockTime = 0 s

Time = 1.25

Courant Number mean: 0.0594301 max: 0.488669
smoothSolver:  Solving for Ux, Initial residual = 0.0115689, Final residual = 7.03481e-06, No Iterations 2
smoothSolver:  Solving for Uy, Initial residual = 0.0174668, Final residual = 1.84148e-06, No Iterations 2
DICPCG:  Solving for p, Initial residual = 0.0297706, Final residual = 0.0011997, No Iterations 8
time step continuity errors : sum local = 3.10563e-06, global = 9.15592e-20, cumulative = 6.33332e-19
DICPCG:  Solving for p, Initial residual = 0.00355178, Final residual = 7.58235e-07, No Iterations 26
time step continuity errors : sum local = 1.98783e-09, global = 4.76704e-20, cumulative = 6.81002e-19
ExecutionTime = 0.04 s  ClockTime = 0 s

Time = 1.3

Courant Number mean: 0.0608159 max: 0.499524
smoothSolver:  Solving for Ux, Initial residual = 0.0109301, Final residual = 6.85443e-06, No Iterations 2
smoothSolver:  Solving for Uy, Initial residual = 0.0168893, Final residual = 1.86888e-06, No Iterations 2
DICPCG:  Solving for p, Initial residual = 0.0275767, Final residual = 0.00112925, No Iterations 8
time step continuity errors : sum local = 3.05936e-06, global = 2.26088e-19, cumulative = 9.0709e-19
DICPCG:  Solving for p, Initial residual = 0.00339162, Final residual = 3.11021e-07, No Iterations 27
time step continuity errors : sum local = 8.53425e-10, global = -4.93933e-19, cumulative = 4.13157e-19
ExecutionTime = 0.04 s  ClockTime = 0 s

Time = 1.35

Courant Number mean: 0.0621384 max: 0.509618
smoothSolver:  Solving for Ux, Initial residual = 0.0103386, Final residual = 6.62668e-06, No Iterations 2
smoothSolver:  Solving for Uy, Initial residual = 0.0162824, Final residual = 1.94537e-06, No Iterations 2
DICPCG:  Solving for p, Initial residual = 0.0259025, Final residual = 0.00108742, No Iterations 8
time step continuity errors : sum local = 3.07078e-06, global = 3.18754e-19, cumulative = 7.31912e-19
DICPCG:  Solving for p, Initial residual = 0.00326834, Final residual = 3.06936e-07, No Iterations 27
time step continuity errors : sum local = 8.7843e-10, global = -5.33465e-19, cumulative = 1.98446e-19
ExecutionTime = 0.04 s  ClockTime = 0 s

Time = 1.4

Courant Number mean: 0.0633965 max: 0.518966
smoothSolver:  Solving for Ux, Initial residual = 0.00981125, Final residual = 6.36415e-06, No Iterations 2
smoothSolver:  Solving for Uy, Initial residual = 0.0157903, Final residual = 2.01693e-06, No Iterations 2
DICPCG:  Solving for p, Initial residual = 0.0250122, Final residual = 0.00104563, No Iterations 8
time step continuity errors : sum local = 3.07303e-06, global = 1.24847e-20, cumulative = 2.10931e-19
DICPCG:  Solving for p, Initial residual = 0.00310556, Final residual = 3.15943e-07, No Iterations 27
time step continuity errors : sum local = 9.39405e-10, global = -1.31674e-19, cumulative = 7.92571e-20
ExecutionTime = 0.04 s  ClockTime = 0 s

Time = 1.45

Courant Number mean: 0.0645992 max: 0.52756
smoothSolver:  Solving for Ux, Initial residual = 0.00933072, Final residual = 6.0612e-06, No Iterations 2
smoothSolver:  Solving for Uy, Initial residual = 0.0153382, Final residual = 2.07972e-06, No Iterations 2
DICPCG:  Solving for p, Initial residual = 0.0230118, Final residual = 0.000992343, No Iterations 8
time step continuity errors : sum local = 3.02966e-06, global = 1.56067e-19, cumulative = 2.35324e-19
DICPCG:  Solving for p, Initial residual = 0.00300711, Final residual = 3.49959e-07, No Iterations 27
time step continuity errors : sum local = 1.07945e-09, global = -4.2934e-20, cumulative = 1.9239e-19
ExecutionTime = 0.04 s  ClockTime = 0 s

Time = 1.5

Courant Number mean: 0.0657494 max: 0.535586
smoothSolver:  Solving for Ux, Initial residual = 0.00887033, Final residual = 5.7401e-06, No Iterations 2
smoothSolver:  Solving for Uy, Initial residual = 0.0149211, Final residual = 2.12232e-06, No Iterations 2
DICPCG:  Solving for p, Initial residual = 0.02275, Final residual = 0.000952637, No Iterations 8
time step continuity errors : sum local = 3.0161e-06, global = -1.69725e-19, cumulative = 2.26651e-20
DICPCG:  Solving for p, Initial residual = 0.00285384, Final residual = 3.70442e-07, No Iterations 27
time step continuity errors : sum local = 1.18349e-09, global = 1.7887e-19, cumulative = 2.01535e-19
ExecutionTime = 0.04 s  ClockTime = 0 s

Time = 1.55

Courant Number mean: 0.0668656 max: 0.543039
smoothSolver:  Solving for Ux, Initial residual = 0.00843826, Final residual = 5.3978e-06, No Iterations 2
smoothSolver:  Solving for Uy, Initial residual = 0.0145172, Final residual = 2.1357e-06, No Iterations 2
DICPCG:  Solving for p, Initial residual = 0.0220291, Final residual = 0.000901302, No Iterations 8
time step continuity errors : sum local = 2.949e-06, global = -1.35306e-19, cumulative = 6.62291e-20
DICPCG:  Solving for p, Initial residual = 0.00271289, Final residual = 4.63363e-07, No Iterations 27
time step continuity errors : sum local = 1.52707e-09, global = 1.94182e-19, cumulative = 2.60411e-19
ExecutionTime = 0.04 s  ClockTime = 0 s

Time = 1.6

Courant Number mean: 0.0679279 max: 0.54991
smoothSolver:  Solving for Ux, Initial residual = 0.00808227, Final residual = 5.04895e-06, No Iterations 2
smoothSolver:  Solving for Uy, Initial residual = 0.0141077, Final residual = 2.12755e-06, No Iterations 2
DICPCG:  Solving for p, Initial residual = 0.0221625, Final residual = 0.000822192, No Iterations 8
time step continuity errors : sum local = 2.76762e-06, global = 2.82687e-20, cumulative = 2.8868e-19
DICPCG:  Solving for p, Initial residual = 0.002642, Final residual = 6.36745e-07, No Iterations 27
time step continuity errors : sum local = 2.15722e-09, global = 2.48419e-19, cumulative = 5.37099e-19
ExecutionTime = 0.04 s  ClockTime = 0 s

Time = 1.65

Courant Number mean: 0.0689583 max: 0.55615
smoothSolver:  Solving for Ux, Initial residual = 0.00778538, Final residual = 4.67758e-06, No Iterations 2
smoothSolver:  Solving for Uy, Initial residual = 0.0136615, Final residual = 2.15977e-06, No Iterations 2
DICPCG:  Solving for p, Initial residual = 0.0208918, Final residual = 0.000802916, No Iterations 8
time step continuity errors : sum local = 2.77568e-06, global = -1.26998e-19, cumulative = 4.10101e-19
DICPCG:  Solving for p, Initial residual = 0.00262275, Final residual = 5.73725e-07, No Iterations 27
time step continuity errors : sum local = 1.99535e-09, global = -5.25081e-19, cumulative = -1.1498e-19
ExecutionTime = 0.05 s  ClockTime = 0 s

Time = 1.7

Courant Number mean: 0.0699472 max: 0.561895
smoothSolver:  Solving for Ux, Initial residual = 0.00756838, Final residual = 4.32275e-06, No Iterations 2
smoothSolver:  Solving for Uy, Initial residual = 0.0132861, Final residual = 2.17893e-06, No Iterations 2
DICPCG:  Solving for p, Initial residual = 0.0204472, Final residual = 0.000748584, No Iterations 8
time step continuity errors : sum local = 2.6512e-06, global = -1.68719e-19, cumulative = -2.83699e-19
DICPCG:  Solving for p, Initial residual = 0.00257251, Final residual = 6.27925e-07, No Iterations 27
time step continuity errors : sum local = 2.2357e-09, global = -1.11941e-19, cumulative = -3.95639e-19
ExecutionTime = 0.05 s  ClockTime = 0 s

Time = 1.75

Courant Number mean: 0.0708901 max: 0.567131
smoothSolver:  Solving for Ux, Initial residual = 0.00735726, Final residual = 3.97083e-06, No Iterations 2
smoothSolver:  Solving for Uy, Initial residual = 0.012906, Final residual = 2.1733e-06, No Iterations 2
DICPCG:  Solving for p, Initial residual = 0.0193841, Final residual = 0.000728331, No Iterations 8
time step continuity errors : sum local = 2.63812e-06, global = -2.71154e-19, cumulative = -6.66794e-19
DICPCG:  Solving for p, Initial residual = 0.00250286, Final residual = 5.88874e-07, No Iterations 27
time step continuity errors : sum local = 2.14208e-09, global = 9.51589e-20, cumulative = -5.71635e-19
ExecutionTime = 0.05 s  ClockTime = 0 s

Time = 1.8

Courant Number mean: 0.0717985 max: 0.571906
smoothSolver:  Solving for Ux, Initial residual = 0.00718015, Final residual = 3.64949e-06, No Iterations 2
smoothSolver:  Solving for Uy, Initial residual = 0.012552, Final residual = 2.1445e-06, No Iterations 2
DICPCG:  Solving for p, Initial residual = 0.0174265, Final residual = 0.000711809, No Iterations 8
time step continuity errors : sum local = 2.6353e-06, global = -8.38612e-20, cumulative = -6.55496e-19
DICPCG:  Solving for p, Initial residual = 0.00230205, Final residual = 5.69862e-07, No Iterations 24
time step continuity errors : sum local = 2.11364e-09, global = 5.33419e-19, cumulative = -1.22077e-19
ExecutionTime = 0.05 s  ClockTime = 0 s

Time = 1.85

Courant Number mean: 0.0726828 max: 0.576258
smoothSolver:  Solving for Ux, Initial residual = 0.0070516, Final residual = 3.37182e-06, No Iterations 2
smoothSolver:  Solving for Uy, Initial residual = 0.0122208, Final residual = 2.09999e-06, No Iterations 2
DICPCG:  Solving for p, Initial residual = 0.0169104, Final residual = 0.000631834, No Iterations 8
time step continuity errors : sum local = 2.38792e-06, global = -1.50605e-19, cumulative = -2.72682e-19
DICPCG:  Solving for p, Initial residual = 0.00222362, Final residual = 7.36992e-07, No Iterations 24
time step continuity errors : sum local = 2.79084e-09, global = -2.70627e-19, cumulative = -5.43309e-19
ExecutionTime = 0.05 s  ClockTime = 0 s

Time = 1.9

Courant Number mean: 0.0735416 max: 0.580197
smoothSolver:  Solving for Ux, Initial residual = 0.00690621, Final residual = 3.07008e-06, No Iterations 2
smoothSolver:  Solving for Uy, Initial residual = 0.0118619, Final residual = 2.04254e-06, No Iterations 2
DICPCG:  Solving for p, Initial residual = 0.0167756, Final residual = 0.000602323, No Iterations 8
time step continuity errors : sum local = 2.31881e-06, global = 3.04867e-20, cumulative = -5.12822e-19
DICPCG:  Solving for p, Initial residual = 0.00215514, Final residual = 6.04966e-07, No Iterations 27
time step continuity errors : sum local = 2.3369e-09, global = 7.59683e-20, cumulative = -4.36854e-19
ExecutionTime = 0.05 s  ClockTime = 0 s

Time = 1.95

Courant Number mean: 0.0743718 max: 0.583754
smoothSolver:  Solving for Ux, Initial residual = 0.0067633, Final residual = 2.77764e-06, No Iterations 2
smoothSolver:  Solving for Uy, Initial residual = 0.0114794, Final residual = 1.98281e-06, No Iterations 2
DICPCG:  Solving for p, Initial residual = 0.0166997, Final residual = 0.000588042, No Iterations 8
time step continuity errors : sum local = 2.31545e-06, global = -1.09575e-19, cumulative = -5.46429e-19
DICPCG:  Solving for p, Initial residual = 0.00206075, Final residual = 5.82197e-07, No Iterations 27
time step continuity errors : sum local = 2.3018e-09, global = 2.97203e-19, cumulative = -2.49226e-19
ExecutionTime = 0.05 s  ClockTime = 0 s

Time = 2

Courant Number mean: 0.0751873 max: 0.586973
smoothSolver:  Solving for Ux, Initial residual = 0.00665677, Final residual = 2.52462e-06, No Iterations 2
smoothSolver:  Solving for Uy, Initial residual = 0.0111214, Final residual = 1.91105e-06, No Iterations 2
DICPCG:  Solving for p, Initial residual = 0.0168186, Final residual = 0.000632496, No Iterations 7
time step continuity errors : sum local = 2.52194e-06, global = -6.66774e-19, cumulative = -9.16e-19
DICPCG:  Solving for p, Initial residual = 0.00210181, Final residual = 7.88532e-07, No Iterations 26
time step continuity errors : sum local = 3.19646e-09, global = 3.7693e-20, cumulative = -8.78307e-19
ExecutionTime = 0.05 s  ClockTime = 0 s

Time = 2.05

Courant Number mean: 0.0760232 max: 0.589651
smoothSolver:  Solving for Ux, Initial residual = 0.00651207, Final residual = 2.18791e-06, No Iterations 2
smoothSolver:  Solving for Uy, Initial residual = 0.0110089, Final residual = 1.79768e-06, No Iterations 2
DICPCG:  Solving for p, Initial residual = 0.015726, Final residual = 0.000692179, No Iterations 7
time step continuity errors : sum local = 2.8129e-06, global = 8.57567e-19, cumulative = -2.074e-20
DICPCG:  Solving for p, Initial residual = 0.00204619, Final residual = 5.17495e-07, No Iterations 27
time step continuity errors : sum local = 2.12068e-09, global = -3.72139e-19, cumulative = -3.92879e-19
ExecutionTime = 0.05 s  ClockTime = 0 s

Time = 2.1

Courant Number mean: 0.0768741 max: 0.591889
smoothSolver:  Solving for Ux, Initial residual = 0.00642746, Final residual = 1.9186e-06, No Iterations 2
smoothSolver:  Solving for Uy, Initial residual = 0.0107817, Final residual = 1.7039e-06, No Iterations 2
DICPCG:  Solving for p, Initial residual = 0.0161304, Final residual = 0.000645133, No Iterations 7
time step continuity errors : sum local = 2.66397e-06, global = 7.25839e-19, cumulative = 3.32961e-19
DICPCG:  Solving for p, Initial residual = 0.0021333, Final residual = 5.4193e-07, No Iterations 27
time step continuity errors : sum local = 2.25538e-09, global = 4.45433e-19, cumulative = 7.78394e-19
ExecutionTime = 0.05 s  ClockTime = 0 s

Time = 2.15

Courant Number mean: 0.0777363 max: 0.593785
smoothSolver:  Solving for Ux, Initial residual = 0.00635191, Final residual = 1.67092e-06, No Iterations 2
smoothSolver:  Solving for Uy, Initial residual = 0.0105815, Final residual = 1.6163e-06, No Iterations 2
DICPCG:  Solving for p, Initial residual = 0.0153577, Final residual = 0.000716501, No Iterations 7
time step continuity errors : sum local = 3.00407e-06, global = -2.09951e-19, cumulative = 5.68443e-19
DICPCG:  Solving for p, Initial residual = 0.00211563, Final residual = 5.4761e-07, No Iterations 27
time step continuity errors : sum local = 2.31429e-09, global = 2.8275e-19, cumulative = 8.51193e-19
ExecutionTime = 0.05 s  ClockTime = 0 s

Time = 2.2

Courant Number mean: 0.0785813 max: 0.595428
smoothSolver:  Solving for Ux, Initial residual = 0.00630091, Final residual = 1.48529e-06, No Iterations 2
smoothSolver:  Solving for Uy, Initial residual = 0.0103388, Final residual = 1.53045e-06, No Iterations 2
DICPCG:  Solving for p, Initial residual = 0.0139367, Final residual = 0.000688397, No Iterations 7
time step continuity errors : sum local = 2.92781e-06, global = 2.62906e-19, cumulative = 1.1141e-18
DICPCG:  Solving for p, Initial residual = 0.00200792, Final residual = 5.49176e-07, No Iterations 27
time step continuity errors : sum local = 2.35202e-09, global = -3.18167e-20, cumulative = 1.08228e-18
ExecutionTime = 0.05 s  ClockTime = 0 s

Time = 2.25

Courant Number mean: 0.0794043 max: 0.596834
smoothSolver:  Solving for Ux, Initial residual = 0.00626236, Final residual = 1.3193e-06, No Iterations 2
smoothSolver:  Solving for Uy, Initial residual = 0.0101142, Final residual = 1.44147e-06, No Iterations 2
DICPCG:  Solving for p, Initial residual = 0.0135619, Final residual = 0.000514967, No Iterations 7
time step continuity errors : sum local = 2.2142e-06, global = 1.96034e-19, cumulative = 1.27832e-18
DICPCG:  Solving for p, Initial residual = 0.00181413, Final residual = 5.1482e-07, No Iterations 27
time step continuity errors : sum local = 2.22173e-09, global = 3.88788e-19, cumulative = 1.6671e-18
ExecutionTime = 0.05 s  ClockTime = 0 s

Time = 2.3

Courant Number mean: 0.0802226 max: 0.598006
smoothSolver:  Solving for Ux, Initial residual = 0.00620237, Final residual = 1.15644e-06, No Iterations 2
smoothSolver:  Solving for Uy, Initial residual = 0.00985028, Final residual = 1.36147e-06, No Iterations 2
DICPCG:  Solving for p, Initial residual = 0.0137925, Final residual = 0.000621027, No Iterations 7
time step continuity errors : sum local = 2.69552e-06, global = 5.81224e-19, cumulative = 2.24833e-18
DICPCG:  Solving for p, Initial residual = 0.00190175, Final residual = 5.15983e-07, No Iterations 27
time step continuity errors : sum local = 2.24991e-09, global = -6.48377e-20, cumulative = 2.18349e-18
ExecutionTime = 0.05 s  ClockTime = 0 s

Time = 2.35

Courant Number mean: 0.081013 max: 0.598975
smoothSolver:  Solving for Ux, Initial residual = 0.00615593, Final residual = 1.03516e-06, No Iterations 2
smoothSolver:  Solving for Uy, Initial residual = 0.00958124, Final residual = 1.32476e-06, No Iterations 2
DICPCG:  Solving for p, Initial residual = 0.0124249, Final residual = 0.000509114, No Iterations 7
time step continuity errors : sum local = 2.22838e-06, global = -1.66179e-19, cumulative = 2.01731e-18
DICPCG:  Solving for p, Initial residual = 0.00176273, Final residual = 9.84793e-07, No Iterations 26
time step continuity errors : sum local = 4.35082e-09, global = 2.48022e-20, cumulative = 2.04211e-18
ExecutionTime = 0.05 s  ClockTime = 0 s

Time = 2.4

Courant Number mean: 0.0817773 max: 0.599755
smoothSolver:  Solving for Ux, Initial residual = 0.00611841, Final residual = 9.1208e-07, No Iterations 2
smoothSolver:  Solving for Uy, Initial residual = 0.00933233, Final residual = 1.28539e-06, No Iterations 2
DICPCG:  Solving for p, Initial residual = 0.012658, Final residual = 0.000479184, No Iterations 7
time step continuity errors : sum local = 2.11351e-06, global = 2.47282e-19, cumulative = 2.2894e-18
DICPCG:  Solving for p, Initial residual = 0.0017041, Final residual = 7.86078e-07, No Iterations 26
time step continuity errors : sum local = 3.5014e-09, global = 1.16189e-19, cumulative = 2.40558e-18
ExecutionTime = 0.05 s  ClockTime = 0 s

Time = 2.45

Courant Number mean: 0.0825144 max: 0.600356
smoothSolver:  Solving for Ux, Initial residual = 0.00609079, Final residual = 8.37515e-07, No Iterations 2
smoothSolver:  Solving for Uy, Initial residual = 0.00907825, Final residual = 1.23043e-06, No Iterations 2
DICPCG:  Solving for p, Initial residual = 0.0128188, Final residual = 0.000640651, No Iterations 6
time step continuity errors : sum local = 2.83495e-06, global = 7.36358e-20, cumulative = 2.47922e-18
DICPCG:  Solving for p, Initial residual = 0.00157418, Final residual = 4.58516e-07, No Iterations 26
time step continuity errors : sum local = 2.06238e-09, global = 2.33417e-19, cumulative = 2.71264e-18
ExecutionTime = 0.06 s  ClockTime = 0 s

Time = 2.5

Courant Number mean: 0.0832425 max: 0.600792
smoothSolver:  Solving for Ux, Initial residual = 0.00605415, Final residual = 7.49017e-07, No Iterations 2
smoothSolver:  Solving for Uy, Initial residual = 0.00883362, Final residual = 1.1945e-06, No Iterations 2
DICPCG:  Solving for p, Initial residual = 0.013316, Final residual = 0.000464065, No Iterations 7
time step continuity errors : sum local = 2.07823e-06, global = -4.88196e-19, cumulative = 2.22444e-18
DICPCG:  Solving for p, Initial residual = 0.00162431, Final residual = 6.15595e-07, No Iterations 26
time step continuity errors : sum local = 2.78255e-09, global = 4.03598e-20, cumulative = 2.2648e-18
ExecutionTime = 0.06 s  ClockTime = 0 s

Time = 2.55

Courant Number mean: 0.0839739 max: 0.601082
smoothSolver:  Solving for Ux, Initial residual = 0.00603572, Final residual = 6.57849e-07, No Iterations 2
smoothSolver:  Solving for Uy, Initial residual = 0.00863886, Final residual = 1.1748e-06, No Iterations 2
DICPCG:  Solving for p, Initial residual = 0.0132209, Final residual = 0.00050192, No Iterations 7
time step continuity errors : sum local = 2.26124e-06, global = 7.55447e-20, cumulative = 2.34035e-18
DICPCG:  Solving for p, Initial residual = 0.00157415, Final residual = 6.06891e-07, No Iterations 26
time step continuity errors : sum local = 2.75789e-09, global = 1.87366e-19, cumulative = 2.52771e-18
ExecutionTime = 0.06 s  ClockTime = 0 s

Time = 2.6

Courant Number mean: 0.084686 max: 0.601246
smoothSolver:  Solving for Ux, Initial residual = 0.00603103, Final residual = 6.20129e-07, No Iterations 2
smoothSolver:  Solving for Uy, Initial residual = 0.00845553, Final residual = 1.13904e-06, No Iterations 2
DICPCG:  Solving for p, Initial residual = 0.0120799, Final residual = 0.000423558, No Iterations 7
time step continuity errors : sum local = 1.91951e-06, global = -3.75549e-19, cumulative = 2.15216e-18
DICPCG:  Solving for p, Initial residual = 0.00147797, Final residual = 4.62912e-07, No Iterations 26
time step continuity errors : sum local = 2.10089e-09, global = -1.43016e-19, cumulative = 2.00915e-18
ExecutionTime = 0.07 s  ClockTime = 0 s

Time = 2.65

Courant Number mean: 0.0853803 max: 0.601308
smoothSolver:  Solving for Ux, Initial residual = 0.0060208, Final residual = 5.81655e-07, No Iterations 2
smoothSolver:  Solving for Uy, Initial residual = 0.0082784, Final residual = 1.10966e-06, No Iterations 2
DICPCG:  Solving for p, Initial residual = 0.0120791, Final residual = 0.00059772, No Iterations 6
time step continuity errors : sum local = 2.70906e-06, global = 1.05931e-19, cumulative = 2.11508e-18
DICPCG:  Solving for p, Initial residual = 0.00150784, Final residual = 5.5491e-07, No Iterations 26
time step continuity errors : sum local = 2.54091e-09, global = 2.44237e-19, cumulative = 2.35931e-18
ExecutionTime = 0.07 s  ClockTime = 0 s

Time = 2.7

Courant Number mean: 0.0860612 max: 0.601286
smoothSolver:  Solving for Ux, Initial residual = 0.0060056, Final residual = 5.51145e-07, No Iterations 2
smoothSolver:  Solving for Uy, Initial residual = 0.00810876, Final residual = 1.07836e-06, No Iterations 2
DICPCG:  Solving for p, Initial residual = 0.0130854, Final residual = 0.000602202, No Iterations 5
time step continuity errors : sum local = 2.73205e-06, global = -1.91745e-19, cumulative = 2.16757e-18
DICPCG:  Solving for p, Initial residual = 0.00158573, Final residual = 5.01418e-07, No Iterations 26
time step continuity errors : sum local = 2.29265e-09, global = 5.77043e-21, cumulative = 2.17334e-18
ExecutionTime = 0.07 s  ClockTime = 0 s

Time = 2.75

Courant Number mean: 0.0867773 max: 0.601165
smoothSolver:  Solving for Ux, Initial residual = 0.00600018, Final residual = 5.33278e-07, No Iterations 2
smoothSolver:  Solving for Uy, Initial residual = 0.00799484, Final residual = 1.06372e-06, No Iterations 2
DICPCG:  Solving for p, Initial residual = 0.0135458, Final residual = 0.000534809, No Iterations 5
time step continuity errors : sum local = 2.43512e-06, global = -1.69087e-19, cumulative = 2.00425e-18
DICPCG:  Solving for p, Initial residual = 0.00154803, Final residual = 4.72132e-07, No Iterations 26
time step continuity errors : sum local = 2.15445e-09, global = -5.02899e-19, cumulative = 1.50135e-18
ExecutionTime = 0.07 s  ClockTime = 0 s

Time = 2.8

Courant Number mean: 0.0875131 max: 0.60089
smoothSolver:  Solving for Ux, Initial residual = 0.00598782, Final residual = 5.84861e-07, No Iterations 2
smoothSolver:  Solving for Uy, Initial residual = 0.00794752, Final residual = 1.06602e-06, No Iterations 2
DICPCG:  Solving for p, Initial residual = 0.012305, Final residual = 0.000502709, No Iterations 5
time step continuity errors : sum local = 2.2982e-06, global = -1.95965e-20, cumulative = 1.48176e-18
DICPCG:  Solving for p, Initial residual = 0.00147679, Final residual = 4.45352e-07, No Iterations 26
time step continuity errors : sum local = 2.04236e-09, global = -6.28101e-19, cumulative = 8.53656e-19
ExecutionTime = 0.07 s  ClockTime = 0 s

Time = 2.85

Courant Number mean: 0.0882413 max: 0.600526
smoothSolver:  Solving for Ux, Initial residual = 0.00597782, Final residual = 6.16074e-07, No Iterations 2
smoothSolver:  Solving for Uy, Initial residual = 0.00783562, Final residual = 1.05516e-06, No Iterations 2
DICPCG:  Solving for p, Initial residual = 0.0123398, Final residual = 0.000534134, No Iterations 6
time step continuity errors : sum local = 2.45645e-06, global = 7.60636e-19, cumulative = 1.61429e-18
DICPCG:  Solving for p, Initial residual = 0.00143532, Final residual = 8.48539e-07, No Iterations 26
time step continuity errors : sum local = 3.95544e-09, global = -1.75958e-19, cumulative = 1.43833e-18
ExecutionTime = 0.07 s  ClockTime = 0 s

Time = 2.9

Courant Number mean: 0.0889597 max: 0.600111
smoothSolver:  Solving for Ux, Initial residual = 0.00596327, Final residual = 6.08377e-07, No Iterations 2
smoothSolver:  Solving for Uy, Initial residual = 0.00770084, Final residual = 1.03657e-06, No Iterations 2
DICPCG:  Solving for p, Initial residual = 0.0115967, Final residual = 0.000547103, No Iterations 5
time step continuity errors : sum local = 2.51905e-06, global = 3.1519e-19, cumulative = 1.75352e-18
DICPCG:  Solving for p, Initial residual = 0.00150953, Final residual = 5.33439e-07, No Iterations 26
time step continuity errors : sum local = 2.46782e-09, global = 6.27334e-20, cumulative = 1.81626e-18
ExecutionTime = 0.07 s  ClockTime = 0 s

Time = 2.95

Courant Number mean: 0.0896876 max: 0.599649
smoothSolver:  Solving for Ux, Initial residual = 0.00595774, Final residual = 6.12165e-07, No Iterations 2
smoothSolver:  Solving for Uy, Initial residual = 0.0076111, Final residual = 1.02769e-06, No Iterations 2
DICPCG:  Solving for p, Initial residual = 0.0135266, Final residual = 0.00054318, No Iterations 5
time step continuity errors : sum local = 2.50638e-06, global = 8.42305e-20, cumulative = 1.90049e-18
DICPCG:  Solving for p, Initial residual = 0.00145412, Final residual = 4.98414e-07, No Iterations 26
time step continuity errors : sum local = 2.30852e-09, global = 6.40992e-19, cumulative = 2.54148e-18
ExecutionTime = 0.07 s  ClockTime = 0 s

Time = 3

Courant Number mean: 0.0904355 max: 0.599178
smoothSolver:  Solving for Ux, Initial residual = 0.00594888, Final residual = 6.2353e-07, No Iterations 2
smoothSolver:  Solving for Uy, Initial residual = 0.00748916, Final residual = 9.95218e-07, No Iterations 2
DICPCG:  Solving for p, Initial residual = 0.0122442, Final residual = 0.000598404, No Iterations 6
time step continuity errors : sum local = 2.77241e-06, global = -4.95936e-19, cumulative = 2.04554e-18
DICPCG:  Solving for p, Initial residual = 0.00153178, Final residual = 5.27222e-07, No Iterations 27
time step continuity errors : sum local = 2.46263e-09, global = -1.10538e-19, cumulative = 1.93501e-18
ExecutionTime = 0.07 s  ClockTime = 0 s

Time = 3.05

Courant Number mean: 0.0911768 max: 0.59865
smoothSolver:  Solving for Ux, Initial residual = 0.00594418, Final residual = 6.29564e-07, No Iterations 2
smoothSolver:  Solving for Uy, Initial residual = 0.00741344, Final residual = 9.80723e-07, No Iterations 2
DICPCG:  Solving for p, Initial residual = 0.0116722, Final residual = 0.000489924, No Iterations 5
time step continuity errors : sum local = 2.26872e-06, global = -7.27601e-19, cumulative = 1.2074e-18
DICPCG:  Solving for p, Initial residual = 0.00144702, Final residual = 4.40306e-07, No Iterations 26
time step continuity errors : sum local = 2.03867e-09, global = -4.01864e-19, cumulative = 8.0554e-19
ExecutionTime = 0.07 s  ClockTime = 0 s

Time = 3.1

Courant Number mean: 0.0919051 max: 0.598101
smoothSolver:  Solving for Ux, Initial residual = 0.00593539, Final residual = 6.31896e-07, No Iterations 2
smoothSolver:  Solving for Uy, Initial residual = 0.00732749, Final residual = 9.72642e-07, No Iterations 2
DICPCG:  Solving for p, Initial residual = 0.0118437, Final residual = 0.000492775, No Iterations 5
time step continuity errors : sum local = 2.28773e-06, global = 6.28392e-19, cumulative = 1.43393e-18
DICPCG:  Solving for p, Initial residual = 0.0013188, Final residual = 4.11393e-07, No Iterations 26
time step continuity errors : sum local = 1.91271e-09, global = 1.02756e-19, cumulative = 1.53669e-18
ExecutionTime = 0.07 s  ClockTime = 0 s

Time = 3.15

Courant Number mean: 0.0926332 max: 0.597551
smoothSolver:  Solving for Ux, Initial residual = 0.00593755, Final residual = 6.30966e-07, No Iterations 2
smoothSolver:  Solving for Uy, Initial residual = 0.0072259, Final residual = 9.45536e-07, No Iterations 2
DICPCG:  Solving for p, Initial residual = 0.0117668, Final residual = 0.000578923, No Iterations 5
time step continuity errors : sum local = 2.69151e-06, global = 2.31239e-19, cumulative = 1.76793e-18
DICPCG:  Solving for p, Initial residual = 0.00135291, Final residual = 4.70759e-07, No Iterations 26
time step continuity errors : sum local = 2.20105e-09, global = 6.37233e-19, cumulative = 2.40516e-18
ExecutionTime = 0.08 s  ClockTime = 0 s

Time = 3.2

Courant Number mean: 0.0933549 max: 0.59703
smoothSolver:  Solving for Ux, Initial residual = 0.00593492, Final residual = 6.05092e-07, No Iterations 2
smoothSolver:  Solving for Uy, Initial residual = 0.00710686, Final residual = 9.1707e-07, No Iterations 2
DICPCG:  Solving for p, Initial residual = 0.0110798, Final residual = 0.000510933, No Iterations 5
time step continuity errors : sum local = 2.37952e-06, global = 3.32826e-19, cumulative = 2.73799e-18
DICPCG:  Solving for p, Initial residual = 0.00129955, Final residual = 4.08414e-07, No Iterations 26
time step continuity errors : sum local = 1.90608e-09, global = -8.27657e-19, cumulative = 1.91033e-18
ExecutionTime = 0.08 s  ClockTime = 0 s

Time = 3.25

Courant Number mean: 0.0940639 max: 0.596531
smoothSolver:  Solving for Ux, Initial residual = 0.00593374, Final residual = 5.8513e-07, No Iterations 2
smoothSolver:  Solving for Uy, Initial residual = 0.00699821, Final residual = 8.9317e-07, No Iterations 2
DICPCG:  Solving for p, Initial residual = 0.0107297, Final residual = 0.00048586, No Iterations 5
time step continuity errors : sum local = 2.26613e-06, global = -1.54151e-20, cumulative = 1.89491e-18
DICPCG:  Solving for p, Initial residual = 0.00129339, Final residual = 3.89613e-07, No Iterations 26
time step continuity errors : sum local = 1.81764e-09, global = 1.27108e-19, cumulative = 2.02202e-18
ExecutionTime = 0.08 s  ClockTime = 0 s

Time = 3.3

Courant Number mean: 0.094766 max: 0.596047
smoothSolver:  Solving for Ux, Initial residual = 0.00591861, Final residual = 5.73472e-07, No Iterations 2
smoothSolver:  Solving for Uy, Initial residual = 0.00689479, Final residual = 8.69877e-07, No Iterations 2
DICPCG:  Solving for p, Initial residual = 0.0110783, Final residual = 0.000514238, No Iterations 5
time step continuity errors : sum local = 2.401e-06, global = 2.75919e-19, cumulative = 2.29794e-18
DICPCG:  Solving for p, Initial residual = 0.00131084, Final residual = 4.33229e-07, No Iterations 26
time step continuity errors : sum local = 2.02952e-09, global = -1.71948e-19, cumulative = 2.12599e-18
ExecutionTime = 0.08 s  ClockTime = 0 s

Time = 3.35

Courant Number mean: 0.0954578 max: 0.595581
smoothSolver:  Solving for Ux, Initial residual = 0.00590067, Final residual = 5.5429e-07, No Iterations 2
smoothSolver:  Solving for Uy, Initial residual = 0.00677897, Final residual = 8.45471e-07, No Iterations 2
DICPCG:  Solving for p, Initial residual = 0.0112585, Final residual = 0.000492846, No Iterations 5
time step continuity errors : sum local = 2.30427e-06, global = 6.32831e-19, cumulative = 2.75882e-18
DICPCG:  Solving for p, Initial residual = 0.0012804, Final residual = 9.63165e-07, No Iterations 25
time step continuity errors : sum local = 4.49891e-09, global = -6.72756e-19, cumulative = 2.08607e-18
ExecutionTime = 0.08 s  ClockTime = 0 s

Time = 3.4

Courant Number mean: 0.0961517 max: 0.59512
smoothSolver:  Solving for Ux, Initial residual = 0.00588637, Final residual = 5.47281e-07, No Iterations 2
smoothSolver:  Solving for Uy, Initial residual = 0.00669154, Final residual = 8.25931e-07, No Iterations 2
DICPCG:  Solving for p, Initial residual = 0.0118397, Final residual = 0.000531407, No Iterations 5
time step continuity errors : sum local = 2.48726e-06, global = 1.70148e-19, cumulative = 2.25622e-18
DICPCG:  Solving for p, Initial residual = 0.00131538, Final residual = 9.26929e-07, No Iterations 25
time step continuity errors : sum local = 4.33779e-09, global = -2.39393e-19, cumulative = 2.01682e-18
ExecutionTime = 0.08 s  ClockTime = 0 s

Time = 3.45

Courant Number mean: 0.0968656 max: 0.594638
smoothSolver:  Solving for Ux, Initial residual = 0.00586527, Final residual = 5.56821e-07, No Iterations 2
smoothSolver:  Solving for Uy, Initial residual = 0.00664947, Final residual = 8.2209e-07, No Iterations 2
DICPCG:  Solving for p, Initial residual = 0.012177, Final residual = 0.0005785, No Iterations 5
time step continuity errors : sum local = 2.71221e-06, global = 2.70205e-19, cumulative = 2.28703e-18
DICPCG:  Solving for p, Initial residual = 0.00139244, Final residual = 9.67384e-07, No Iterations 25
time step continuity errors : sum local = 4.55022e-09, global = 8.34327e-20, cumulative = 2.37046e-18
ExecutionTime = 0.08 s  ClockTime = 0 s

Time = 3.5

Courant Number mean: 0.0976009 max: 0.594099
smoothSolver:  Solving for Ux, Initial residual = 0.00583611, Final residual = 5.82132e-07, No Iterations 2
smoothSolver:  Solving for Uy, Initial residual = 0.0066536, Final residual = 8.31596e-07, No Iterations 2
DICPCG:  Solving for p, Initial residual = 0.0115848, Final residual = 0.000561927, No Iterations 5
time step continuity errors : sum local = 2.6426e-06, global = -2.50187e-19, cumulative = 2.12027e-18
DICPCG:  Solving for p, Initial residual = 0.00127492, Final residual = 4.3515e-07, No Iterations 26
time step continuity errors : sum local = 2.05875e-09, global = 4.13352e-19, cumulative = 2.53363e-18
ExecutionTime = 0.08 s  ClockTime = 0 s

Time = 3.55

Courant Number mean: 0.0983352 max: 0.593614
smoothSolver:  Solving for Ux, Initial residual = 0.00580442, Final residual = 5.45753e-07, No Iterations 2
smoothSolver:  Solving for Uy, Initial residual = 0.00650145, Final residual = 7.88263e-07, No Iterations 2
DICPCG:  Solving for p, Initial residual = 0.0102258, Final residual = 0.00048322, No Iterations 5
time step continuity errors : sum local = 2.27873e-06, global = 1.70887e-19, cumulative = 2.70451e-18
DICPCG:  Solving for p, Initial residual = 0.00122272, Final residual = 9.34268e-07, No Iterations 25
time step continuity errors : sum local = 4.39165e-09, global = 5.78947e-19, cumulative = 3.28346e-18
ExecutionTime = 0.08 s  ClockTime = 0 s

Time = 3.6

Courant Number mean: 0.0990574 max: 0.593144
smoothSolver:  Solving for Ux, Initial residual = 0.00578049, Final residual = 5.33236e-07, No Iterations 2
smoothSolver:  Solving for Uy, Initial residual = 0.00641468, Final residual = 7.66965e-07, No Iterations 2
DICPCG:  Solving for p, Initial residual = 0.0105537, Final residual = 0.000504447, No Iterations 5
time step continuity errors : sum local = 2.38283e-06, global = -1.18375e-19, cumulative = 3.16508e-18
DICPCG:  Solving for p, Initial residual = 0.00123129, Final residual = 9.51708e-07, No Iterations 25
time step continuity errors : sum local = 4.47843e-09, global = 4.48504e-19, cumulative = 3.61359e-18
ExecutionTime = 0.08 s  ClockTime = 0 s

Time = 3.65

Courant Number mean: 0.0997641 max: 0.59269
smoothSolver:  Solving for Ux, Initial residual = 0.00575119, Final residual = 5.21734e-07, No Iterations 2
smoothSolver:  Solving for Uy, Initial residual = 0.00632804, Final residual = 7.45652e-07, No Iterations 2
DICPCG:  Solving for p, Initial residual = 0.0104022, Final residual = 0.000477257, No Iterations 5
time step continuity errors : sum local = 2.25745e-06, global = -3.87413e-19, cumulative = 3.22618e-18
DICPCG:  Solving for p, Initial residual = 0.00119192, Final residual = 8.54108e-07, No Iterations 25
time step continuity errors : sum local = 4.02678e-09, global = 8.50527e-19, cumulative = 4.0767e-18
ExecutionTime = 0.08 s  ClockTime = 0 s

Time = 3.7

Courant Number mean: 0.100471 max: 0.592252
smoothSolver:  Solving for Ux, Initial residual = 0.00571702, Final residual = 5.11914e-07, No Iterations 2
smoothSolver:  Solving for Uy, Initial residual = 0.00624482, Final residual = 7.2537e-07, No Iterations 2
DICPCG:  Solving for p, Initial residual = 0.0107394, Final residual = 0.000519118, No Iterations 5
time step continuity errors : sum local = 2.45697e-06, global = 5.26219e-19, cumulative = 4.60292e-18
DICPCG:  Solving for p, Initial residual = 0.00122537, Final residual = 8.06158e-07, No Iterations 25
time step continuity errors : sum local = 3.8018e-09, global = -3.28649e-19, cumulative = 4.27427e-18
ExecutionTime = 0.08 s  ClockTime = 0 s

Time = 3.75

Courant Number mean: 0.10116 max: 0.591835
smoothSolver:  Solving for Ux, Initial residual = 0.00568887, Final residual = 5.01986e-07, No Iterations 2
smoothSolver:  Solving for Uy, Initial residual = 0.00616709, Final residual = 7.06802e-07, No Iterations 2
DICPCG:  Solving for p, Initial residual = 0.00982893, Final residual = 0.000463837, No Iterations 5
time step continuity errors : sum local = 2.19735e-06, global = -2.93763e-19, cumulative = 3.98051e-18
DICPCG:  Solving for p, Initial residual = 0.00116264, Final residual = 8.14067e-07, No Iterations 25
time step continuity errors : sum local = 3.85151e-09, global = 4.43369e-19, cumulative = 4.42388e-18
ExecutionTime = 0.08 s  ClockTime = 0 s

Time = 3.8

Courant Number mean: 0.101839 max: 0.591437
smoothSolver:  Solving for Ux, Initial residual = 0.00566126, Final residual = 4.90766e-07, No Iterations 2
smoothSolver:  Solving for Uy, Initial residual = 0.00609994, Final residual = 6.87595e-07, No Iterations 2
DICPCG:  Solving for p, Initial residual = 0.00972324, Final residual = 0.000465336, No Iterations 5
time step continuity errors : sum local = 2.20677e-06, global = -3.22953e-20, cumulative = 4.39158e-18
DICPCG:  Solving for p, Initial residual = 0.00115042, Final residual = 8.34017e-07, No Iterations 25
time step continuity errors : sum local = 3.94264e-09, global = 2.0297e-19, cumulative = 4.59455e-18
ExecutionTime = 0.08 s  ClockTime = 0 s

Time = 3.85

Courant Number mean: 0.102513 max: 0.591053
smoothSolver:  Solving for Ux, Initial residual = 0.00563096, Final residual = 4.79974e-07, No Iterations 2
smoothSolver:  Solving for Uy, Initial residual = 0.00603938, Final residual = 6.70825e-07, No Iterations 2
DICPCG:  Solving for p, Initial residual = 0.0101358, Final residual = 0.000494297, No Iterations 5
time step continuity errors : sum local = 2.34528e-06, global = 2.75198e-20, cumulative = 4.62207e-18
DICPCG:  Solving for p, Initial residual = 0.00118166, Final residual = 6.57323e-07, No Iterations 22
time step continuity errors : sum local = 3.1164e-09, global = 1.28775e-18, cumulative = 5.90983e-18
ExecutionTime = 0.08 s  ClockTime = 0 s

Time = 3.9

Courant Number mean: 0.103177 max: 0.590683
smoothSolver:  Solving for Ux, Initial residual = 0.00561282, Final residual = 4.74932e-07, No Iterations 2
smoothSolver:  Solving for Uy, Initial residual = 0.00596851, Final residual = 6.54922e-07, No Iterations 2
DICPCG:  Solving for p, Initial residual = 0.00934231, Final residual = 0.00021338, No Iterations 6
time step continuity errors : sum local = 1.02678e-06, global = 6.25749e-20, cumulative = 5.9724e-18
DICPCG:  Solving for p, Initial residual = 0.000994834, Final residual = 8.21903e-07, No Iterations 24
time step continuity errors : sum local = 3.95876e-09, global = -4.07688e-19, cumulative = 5.56472e-18
ExecutionTime = 0.08 s  ClockTime = 0 s

Time = 3.95

Courant Number mean: 0.103833 max: 0.590327
smoothSolver:  Solving for Ux, Initial residual = 0.00558811, Final residual = 4.68602e-07, No Iterations 2
smoothSolver:  Solving for Uy, Initial residual = 0.00589685, Final residual = 6.43782e-07, No Iterations 2
DICPCG:  Solving for p, Initial residual = 0.00955741, Final residual = 0.000229112, No Iterations 6
time step continuity errors : sum local = 1.10322e-06, global = 1.00368e-18, cumulative = 6.5684e-18
DICPCG:  Solving for p, Initial residual = 0.000983599, Final residual = 6.04699e-07, No Iterations 25
time step continuity errors : sum local = 2.90834e-09, global = -5.53218e-19, cumulative = 6.01518e-18
ExecutionTime = 0.08 s  ClockTime = 0 s

Time = 4

Courant Number mean: 0.104476 max: 0.589986
smoothSolver:  Solving for Ux, Initial residual = 0.0055608, Final residual = 4.62074e-07, No Iterations 2
smoothSolver:  Solving for Uy, Initial residual = 0.00582298, Final residual = 6.31309e-07, No Iterations 2
DICPCG:  Solving for p, Initial residual = 0.00910454, Final residual = 0.000453513, No Iterations 5
time step continuity errors : sum local = 2.15952e-06, global = -4.90062e-19, cumulative = 5.52512e-18
DICPCG:  Solving for p, Initial residual = 0.00112667, Final residual = 8.31474e-07, No Iterations 25
time step continuity errors : sum local = 3.94465e-09, global = 3.998e-19, cumulative = 5.92492e-18
ExecutionTime = 0.08 s  ClockTime = 0 s

Time = 4.05

Courant Number mean: 0.105105 max: 0.589657
smoothSolver:  Solving for Ux, Initial residual = 0.0055277, Final residual = 4.52052e-07, No Iterations 2
smoothSolver:  Solving for Uy, Initial residual = 0.00575877, Final residual = 6.21281e-07, No Iterations 2
DICPCG:  Solving for p, Initial residual = 0.00932565, Final residual = 0.00045324, No Iterations 5
time step continuity errors : sum local = 2.16042e-06, global = -1.15724e-19, cumulative = 5.80919e-18
DICPCG:  Solving for p, Initial residual = 0.00113295, Final residual = 7.67146e-07, No Iterations 25
time step continuity errors : sum local = 3.64134e-09, global = -4.61157e-19, cumulative = 5.34804e-18
ExecutionTime = 0.09 s  ClockTime = 0 s

Time = 4.1

Courant Number mean: 0.105725 max: 0.589341
smoothSolver:  Solving for Ux, Initial residual = 0.00550482, Final residual = 4.41288e-07, No Iterations 2
smoothSolver:  Solving for Uy, Initial residual = 0.00568863, Final residual = 6.11023e-07, No Iterations 2
DICPCG:  Solving for p, Initial residual = 0.00920233, Final residual = 0.000452937, No Iterations 5
time step continuity errors : sum local = 2.16126e-06, global = -5.7384e-20, cumulative = 5.29065e-18
DICPCG:  Solving for p, Initial residual = 0.00110128, Final residual = 7.90855e-07, No Iterations 25
time step continuity errors : sum local = 3.75752e-09, global = -2.6528e-19, cumulative = 5.02537e-18
ExecutionTime = 0.09 s  ClockTime = 0 s

Time = 4.15

Courant Number mean: 0.106346 max: 0.589038
smoothSolver:  Solving for Ux, Initial residual = 0.0054808, Final residual = 4.34548e-07, No Iterations 2
smoothSolver:  Solving for Uy, Initial residual = 0.00562158, Final residual = 5.97573e-07, No Iterations 2
DICPCG:  Solving for p, Initial residual = 0.0109393, Final residual = 0.000466553, No Iterations 5
time step continuity errors : sum local = 2.22887e-06, global = -2.35475e-19, cumulative = 4.7899e-18
DICPCG:  Solving for p, Initial residual = 0.00113384, Final residual = 7.71472e-07, No Iterations 25
time step continuity errors : sum local = 3.67184e-09, global = -1.60407e-20, cumulative = 4.77386e-18
ExecutionTime = 0.09 s  ClockTime = 0 s

Time = 4.2

Courant Number mean: 0.106988 max: 0.588744
smoothSolver:  Solving for Ux, Initial residual = 0.00545463, Final residual = 4.28902e-07, No Iterations 2
smoothSolver:  Solving for Uy, Initial residual = 0.00556328, Final residual = 5.85377e-07, No Iterations 2
DICPCG:  Solving for p, Initial residual = 0.0106392, Final residual = 0.000526933, No Iterations 5
time step continuity errors : sum local = 2.51819e-06, global = -2.48286e-19, cumulative = 4.52557e-18
DICPCG:  Solving for p, Initial residual = 0.00122902, Final residual = 8.28035e-07, No Iterations 25
time step continuity errors : sum local = 3.94898e-09, global = 1.51089e-19, cumulative = 4.67666e-18
ExecutionTime = 0.09 s  ClockTime = 0 s

Time = 4.25

Courant Number mean: 0.107657 max: 0.588418
smoothSolver:  Solving for Ux, Initial residual = 0.00540857, Final residual = 4.39138e-07, No Iterations 2
smoothSolver:  Solving for Uy, Initial residual = 0.0055545, Final residual = 5.91466e-07, No Iterations 2
DICPCG:  Solving for p, Initial residual = 0.00931595, Final residual = 0.000455066, No Iterations 5
time step continuity errors : sum local = 2.1787e-06, global = -1.04497e-18, cumulative = 3.63169e-18
DICPCG:  Solving for p, Initial residual = 0.00111792, Final residual = 7.20886e-07, No Iterations 25
time step continuity errors : sum local = 3.43411e-09, global = -5.11502e-19, cumulative = 3.12018e-18
ExecutionTime = 0.09 s  ClockTime = 0 s

Time = 4.3

Courant Number mean: 0.108319 max: 0.588098
smoothSolver:  Solving for Ux, Initial residual = 0.00536531, Final residual = 4.38309e-07, No Iterations 2
smoothSolver:  Solving for Uy, Initial residual = 0.00549149, Final residual = 5.8627e-07, No Iterations 2
DICPCG:  Solving for p, Initial residual = 0.00935972, Final residual = 0.000448708, No Iterations 5
time step continuity errors : sum local = 2.14914e-06, global = -2.27534e-19, cumulative = 2.89265e-18
DICPCG:  Solving for p, Initial residual = 0.00109837, Final residual = 6.4721e-07, No Iterations 25
time step continuity errors : sum local = 3.08616e-09, global = -1.34096e-19, cumulative = 2.75855e-18
ExecutionTime = 0.09 s  ClockTime = 0 s

Time = 4.35

Courant Number mean: 0.108975 max: 0.58779
smoothSolver:  Solving for Ux, Initial residual = 0.00531954, Final residual = 4.35218e-07, No Iterations 2
smoothSolver:  Solving for Uy, Initial residual = 0.00542218, Final residual = 5.7732e-07, No Iterations 2
DICPCG:  Solving for p, Initial residual = 0.00858485, Final residual = 0.00040072, No Iterations 5
time step continuity errors : sum local = 1.9238e-06, global = 2.90876e-19, cumulative = 3.04943e-18
DICPCG:  Solving for p, Initial residual = 0.00105148, Final residual = 5.44068e-07, No Iterations 22
time step continuity errors : sum local = 2.59956e-09, global = 2.75287e-21, cumulative = 3.05218e-18
ExecutionTime = 0.09 s  ClockTime = 0 s

Time = 4.4

Courant Number mean: 0.109619 max: 0.587493
smoothSolver:  Solving for Ux, Initial residual = 0.00529035, Final residual = 4.28781e-07, No Iterations 2
smoothSolver:  Solving for Uy, Initial residual = 0.00536988, Final residual = 5.65825e-07, No Iterations 2
DICPCG:  Solving for p, Initial residual = 0.00846845, Final residual = 0.000389561, No Iterations 5
time step continuity errors : sum local = 1.87212e-06, global = 4.89161e-19, cumulative = 3.54135e-18
DICPCG:  Solving for p, Initial residual = 0.00104636, Final residual = 8.49572e-07, No Iterations 22
time step continuity errors : sum local = 4.04995e-09, global = 6.07746e-20, cumulative = 3.60212e-18
ExecutionTime = 0.09 s  ClockTime = 0 s

Time = 4.45

Courant Number mean: 0.110259 max: 0.587207
smoothSolver:  Solving for Ux, Initial residual = 0.00525283, Final residual = 4.22995e-07, No Iterations 2
smoothSolver:  Solving for Uy, Initial residual = 0.00531641, Final residual = 5.56338e-07, No Iterations 2
DICPCG:  Solving for p, Initial residual = 0.00907445, Final residual = 0.000390424, No Iterations 5
time step continuity errors : sum local = 1.87693e-06, global = 1.08187e-18, cumulative = 4.68399e-18
DICPCG:  Solving for p, Initial residual = 0.000997291, Final residual = 6.27141e-07, No Iterations 25
time step continuity errors : sum local = 2.99228e-09, global = 1.0662e-19, cumulative = 4.79061e-18
ExecutionTime = 0.09 s  ClockTime = 0 s

Time = 4.5

Courant Number mean: 0.11092 max: 0.586941
smoothSolver:  Solving for Ux, Initial residual = 0.00521307, Final residual = 4.13535e-07, No Iterations 2
smoothSolver:  Solving for Uy, Initial residual = 0.00524088, Final residual = 5.34403e-07, No Iterations 2
DICPCG:  Solving for p, Initial residual = 0.0102996, Final residual = 0.000458551, No Iterations 5
time step continuity errors : sum local = 2.20168e-06, global = 1.40978e-19, cumulative = 4.93159e-18
DICPCG:  Solving for p, Initial residual = 0.00113505, Final residual = 7.30866e-07, No Iterations 25
time step continuity errors : sum local = 3.4781e-09, global = 2.80156e-19, cumulative = 5.21175e-18
ExecutionTime = 0.09 s  ClockTime = 0 s

Time = 4.55

Courant Number mean: 0.111568 max: 0.586694
smoothSolver:  Solving for Ux, Initial residual = 0.00516714, Final residual = 4.04e-07, No Iterations 2
smoothSolver:  Solving for Uy, Initial residual = 0.00515782, Final residual = 5.14799e-07, No Iterations 2
DICPCG:  Solving for p, Initial residual = 0.00892529, Final residual = 0.000400105, No Iterations 5
time step continuity errors : sum local = 1.92345e-06, global = 6.14257e-19, cumulative = 5.826e-18
DICPCG:  Solving for p, Initial residual = 0.00105271, Final residual = 6.76773e-07, No Iterations 25
time step continuity errors : sum local = 3.22918e-09, global = 1.50348e-20, cumulative = 5.84104e-18
ExecutionTime = 0.09 s  ClockTime = 0 s

Time = 4.6

Courant Number mean: 0.112207 max: 0.586451
smoothSolver:  Solving for Ux, Initial residual = 0.0051269, Final residual = 3.98846e-07, No Iterations 2
smoothSolver:  Solving for Uy, Initial residual = 0.00509717, Final residual = 5.05504e-07, No Iterations 2
DICPCG:  Solving for p, Initial residual = 0.00802857, Final residual = 0.00034369, No Iterations 5
time step continuity errors : sum local = 1.65501e-06, global = 1.72058e-20, cumulative = 5.85824e-18
DICPCG:  Solving for p, Initial residual = 0.000946982, Final residual = 5.06397e-07, No Iterations 22
time step continuity errors : sum local = 2.41218e-09, global = -9.15537e-19, cumulative = 4.94271e-18
ExecutionTime = 0.09 s  ClockTime = 0 s

Time = 4.65

Courant Number mean: 0.112845 max: 0.586217
smoothSolver:  Solving for Ux, Initial residual = 0.00510393, Final residual = 3.95136e-07, No Iterations 2
smoothSolver:  Solving for Uy, Initial residual = 0.00504091, Final residual = 4.94612e-07, No Iterations 2
DICPCG:  Solving for p, Initial residual = 0.00890548, Final residual = 0.000338129, No Iterations 5
time step continuity errors : sum local = 1.62974e-06, global = 4.06574e-20, cumulative = 4.98337e-18
DICPCG:  Solving for p, Initial residual = 0.000934616, Final residual = 5.45219e-07, No Iterations 25
time step continuity errors : sum local = 2.60335e-09, global = -4.69786e-19, cumulative = 4.51358e-18
ExecutionTime = 0.09 s  ClockTime = 0 s

Time = 4.7

Courant Number mean: 0.11348 max: 0.585992
smoothSolver:  Solving for Ux, Initial residual = 0.00508596, Final residual = 3.91192e-07, No Iterations 2
smoothSolver:  Solving for Uy, Initial residual = 0.00498703, Final residual = 4.84807e-07, No Iterations 2
DICPCG:  Solving for p, Initial residual = 0.00873958, Final residual = 0.000357941, No Iterations 5
time step continuity errors : sum local = 1.72721e-06, global = -3.96782e-19, cumulative = 4.1168e-18
DICPCG:  Solving for p, Initial residual = 0.00096763, Final residual = 5.65002e-07, No Iterations 25
time step continuity errors : sum local = 2.70161e-09, global = -5.93664e-19, cumulative = 3.52313e-18
ExecutionTime = 0.09 s  ClockTime = 0 s

Time = 4.75

Courant Number mean: 0.11411 max: 0.585774
smoothSolver:  Solving for Ux, Initial residual = 0.00505425, Final residual = 3.86218e-07, No Iterations 2
smoothSolver:  Solving for Uy, Initial residual = 0.0049336, Final residual = 4.75162e-07, No Iterations 2
DICPCG:  Solving for p, Initial residual = 0.00872199, Final residual = 0.000374864, No Iterations 5
time step continuity errors : sum local = 1.81076e-06, global = -4.13352e-19, cumulative = 3.10978e-18
DICPCG:  Solving for p, Initial residual = 0.000978112, Final residual = 5.77031e-07, No Iterations 25
time step continuity errors : sum local = 2.75993e-09, global = -1.13079e-19, cumulative = 2.9967e-18
ExecutionTime = 0.09 s  ClockTime = 0 s

Time = 4.8

Courant Number mean: 0.114731 max: 0.585565
smoothSolver:  Solving for Ux, Initial residual = 0.00502079, Final residual = 3.82336e-07, No Iterations 2
smoothSolver:  Solving for Uy, Initial residual = 0.00487917, Final residual = 4.65811e-07, No Iterations 2
DICPCG:  Solving for p, Initial residual = 0.00812344, Final residual = 0.000310094, No Iterations 5
time step continuity errors : sum local = 1.50349e-06, global = 6.12352e-19, cumulative = 3.60905e-18
DICPCG:  Solving for p, Initial residual = 0.000896029, Final residual = 4.65443e-07, No Iterations 25
time step continuity errors : sum local = 2.23236e-09, global = -6.89802e-19, cumulative = 2.91925e-18
ExecutionTime = 0.1 s  ClockTime = 0 s

Time = 4.85

Courant Number mean: 0.115348 max: 0.585365
smoothSolver:  Solving for Ux, Initial residual = 0.00499762, Final residual = 3.80135e-07, No Iterations 2
smoothSolver:  Solving for Uy, Initial residual = 0.00482965, Final residual = 4.59543e-07, No Iterations 2
DICPCG:  Solving for p, Initial residual = 0.00823468, Final residual = 0.00030406, No Iterations 5
time step continuity errors : sum local = 1.4771e-06, global = -1.99635e-19, cumulative = 2.71962e-18
DICPCG:  Solving for p, Initial residual = 0.000888333, Final residual = 4.5016e-07, No Iterations 25
time step continuity errors : sum local = 2.16233e-09, global = 1.2822e-19, cumulative = 2.84784e-18
ExecutionTime = 0.1 s  ClockTime = 0 s

Time = 4.9

Courant Number mean: 0.115957 max: 0.585174
smoothSolver:  Solving for Ux, Initial residual = 0.00497395, Final residual = 3.77353e-07, No Iterations 2
smoothSolver:  Solving for Uy, Initial residual = 0.00477902, Final residual = 4.53252e-07, No Iterations 2
DICPCG:  Solving for p, Initial residual = 0.00789083, Final residual = 0.00032106, No Iterations 5
time step continuity errors : sum local = 1.56084e-06, global = 6.3988e-19, cumulative = 3.48772e-18
DICPCG:  Solving for p, Initial residual = 0.000877969, Final residual = 4.66776e-07, No Iterations 25
time step continuity errors : sum local = 2.24014e-09, global = 3.3029e-19, cumulative = 3.81801e-18
ExecutionTime = 0.1 s  ClockTime = 0 s

Time = 4.95

Courant Number mean: 0.116558 max: 0.584994
smoothSolver:  Solving for Ux, Initial residual = 0.00494321, Final residual = 3.71175e-07, No Iterations 2
smoothSolver:  Solving for Uy, Initial residual = 0.00472351, Final residual = 4.44083e-07, No Iterations 2
DICPCG:  Solving for p, Initial residual = 0.00806543, Final residual = 0.000339089, No Iterations 5
time step continuity errors : sum local = 1.64925e-06, global = -6.81438e-19, cumulative = 3.13657e-18
DICPCG:  Solving for p, Initial residual = 0.000891378, Final residual = 4.74892e-07, No Iterations 25
time step continuity errors : sum local = 2.28299e-09, global = 5.00755e-19, cumulative = 3.63732e-18
ExecutionTime = 0.1 s  ClockTime = 0 s

Time = 5

Courant Number mean: 0.11715 max: 0.584826
smoothSolver:  Solving for Ux, Initial residual = 0.00491238, Final residual = 3.66127e-07, No Iterations 2
smoothSolver:  Solving for Uy, Initial residual = 0.00465994, Final residual = 4.3393e-07, No Iterations 2
DICPCG:  Solving for p, Initial residual = 0.00812417, Final residual = 0.000326724, No Iterations 5
time step continuity errors : sum local = 1.59115e-06, global = -2.88626e-19, cumulative = 3.3487e-18
DICPCG:  Solving for p, Initial residual = 0.000886961, Final residual = 4.25921e-07, No Iterations 25
time step continuity errors : sum local = 2.05571e-09, global = 4.77515e-19, cumulative = 3.82621e-18
ExecutionTime = 0.1 s  ClockTime = 0 s

Time = 5.05

Courant Number mean: 0.117753 max: 0.584663
smoothSolver:  Solving for Ux, Initial residual = 0.00487312, Final residual = 3.59209e-07, No Iterations 2
smoothSolver:  Solving for Uy, Initial residual = 0.00460926, Final residual = 4.25765e-07, No Iterations 2
DICPCG:  Solving for p, Initial residual = 0.00907953, Final residual = 0.000379575, No Iterations 5
time step continuity errors : sum local = 1.84753e-06, global = -3.92653e-19, cumulative = 3.43356e-18
DICPCG:  Solving for p, Initial residual = 0.00097671, Final residual = 4.59609e-07, No Iterations 25
time step continuity errors : sum local = 2.22123e-09, global = 2.78727e-19, cumulative = 3.71229e-18
ExecutionTime = 0.1 s  ClockTime = 0 s

Time = 5.1

Courant Number mean: 0.118364 max: 0.584495
smoothSolver:  Solving for Ux, Initial residual = 0.00483059, Final residual = 3.59321e-07, No Iterations 2
smoothSolver:  Solving for Uy, Initial residual = 0.0045739, Final residual = 4.2219e-07, No Iterations 2
DICPCG:  Solving for p, Initial residual = 0.00766677, Final residual = 0.000321427, No Iterations 5
time step continuity errors : sum local = 1.57057e-06, global = 9.58735e-19, cumulative = 4.67102e-18
DICPCG:  Solving for p, Initial residual = 0.000871544, Final residual = 3.45762e-07, No Iterations 25
time step continuity errors : sum local = 1.66846e-09, global = 2.8905e-19, cumulative = 4.96007e-18
ExecutionTime = 0.1 s  ClockTime = 0 s

Time = 5.15

Courant Number mean: 0.118972 max: 0.584326
smoothSolver:  Solving for Ux, Initial residual = 0.00479078, Final residual = 3.57645e-07, No Iterations 2
smoothSolver:  Solving for Uy, Initial residual = 0.00454104, Final residual = 4.1676e-07, No Iterations 2
DICPCG:  Solving for p, Initial residual = 0.00740338, Final residual = 0.000293641, No Iterations 5
time step continuity errors : sum local = 1.43875e-06, global = 5.65818e-19, cumulative = 5.52589e-18
DICPCG:  Solving for p, Initial residual = 0.000836799, Final residual = 9.99763e-07, No Iterations 24
time step continuity errors : sum local = 4.81423e-09, global = -1.38172e-19, cumulative = 5.38772e-18
ExecutionTime = 0.1 s  ClockTime = 0 s

Time = 5.2

Courant Number mean: 0.119576 max: 0.584164
smoothSolver:  Solving for Ux, Initial residual = 0.00475642, Final residual = 3.54883e-07, No Iterations 2
smoothSolver:  Solving for Uy, Initial residual = 0.00449497, Final residual = 4.10429e-07, No Iterations 2
DICPCG:  Solving for p, Initial residual = 0.00727348, Final residual = 0.000297688, No Iterations 5
time step continuity errors : sum local = 1.45982e-06, global = 2.70953e-19, cumulative = 5.65867e-18
DICPCG:  Solving for p, Initial residual = 0.000821753, Final residual = 8.43103e-07, No Iterations 24
time step continuity errors : sum local = 4.07986e-09, global = -1.37219e-19, cumulative = 5.52145e-18
ExecutionTime = 0.1 s  ClockTime = 0 s

Time = 5.25

Courant Number mean: 0.120182 max: 0.584008
smoothSolver:  Solving for Ux, Initial residual = 0.00472219, Final residual = 3.51981e-07, No Iterations 2
smoothSolver:  Solving for Uy, Initial residual = 0.00444457, Final residual = 4.03003e-07, No Iterations 2
DICPCG:  Solving for p, Initial residual = 0.00746218, Final residual = 0.0003154, No Iterations 5
time step continuity errors : sum local = 1.54716e-06, global = 9.55136e-19, cumulative = 6.47659e-18
DICPCG:  Solving for p, Initial residual = 0.000846004, Final residual = 9.49879e-07, No Iterations 24
time step continuity errors : sum local = 4.58614e-09, global = -3.57448e-19, cumulative = 6.11914e-18
ExecutionTime = 0.1 s  ClockTime = 0 s

Time = 5.3

Courant Number mean: 0.120783 max: 0.583857
smoothSolver:  Solving for Ux, Initial residual = 0.00468312, Final residual = 3.48754e-07, No Iterations 2
smoothSolver:  Solving for Uy, Initial residual = 0.00440037, Final residual = 3.9702e-07, No Iterations 2
DICPCG:  Solving for p, Initial residual = 0.00722913, Final residual = 0.000278933, No Iterations 5
time step continuity errors : sum local = 1.37335e-06, global = 2.52098e-19, cumulative = 6.37124e-18
DICPCG:  Solving for p, Initial residual = 0.000788235, Final residual = 9.19979e-07, No Iterations 24
time step continuity errors : sum local = 4.44863e-09, global = 1.70783e-19, cumulative = 6.54202e-18
ExecutionTime = 0.1 s  ClockTime = 0 s

Time = 5.35

Courant Number mean: 0.121376 max: 0.583721
smoothSolver:  Solving for Ux, Initial residual = 0.00464275, Final residual = 3.42866e-07, No Iterations 2
smoothSolver:  Solving for Uy, Initial residual = 0.00434905, Final residual = 3.84569e-07, No Iterations 2
DICPCG:  Solving for p, Initial residual = 0.00715696, Final residual = 0.000294619, No Iterations 5
time step continuity errors : sum local = 1.4507e-06, global = 9.72234e-20, cumulative = 6.63924e-18
DICPCG:  Solving for p, Initial residual = 0.000790332, Final residual = 9.4102e-07, No Iterations 24
time step continuity errors : sum local = 4.54687e-09, global = 3.64118e-19, cumulative = 7.00336e-18
ExecutionTime = 0.1 s  ClockTime = 0 s

Time = 5.4

Courant Number mean: 0.121967 max: 0.583591
smoothSolver:  Solving for Ux, Initial residual = 0.00460261, Final residual = 3.37403e-07, No Iterations 2
smoothSolver:  Solving for Uy, Initial residual = 0.00430401, Final residual = 3.76643e-07, No Iterations 2
DICPCG:  Solving for p, Initial residual = 0.00737429, Final residual = 0.000304752, No Iterations 5
time step continuity errors : sum local = 1.50198e-06, global = -8.21629e-20, cumulative = 6.9212e-18
DICPCG:  Solving for p, Initial residual = 0.000799855, Final residual = 9.02587e-07, No Iterations 24
time step continuity errors : sum local = 4.36886e-09, global = -5.2749e-19, cumulative = 6.39371e-18
ExecutionTime = 0.1 s  ClockTime = 0 s

Time = 5.45

Courant Number mean: 0.122555 max: 0.583467
smoothSolver:  Solving for Ux, Initial residual = 0.00456655, Final residual = 3.34452e-07, No Iterations 2
smoothSolver:  Solving for Uy, Initial residual = 0.00425639, Final residual = 3.68757e-07, No Iterations 2
DICPCG:  Solving for p, Initial residual = 0.00722615, Final residual = 0.00032084, No Iterations 5
time step continuity errors : sum local = 1.58077e-06, global = 4.78891e-19, cumulative = 6.8726e-18
DICPCG:  Solving for p, Initial residual = 0.000812136, Final residual = 9.40069e-07, No Iterations 24
time step continuity errors : sum local = 4.5552e-09, global = -6.4798e-19, cumulative = 6.22462e-18
ExecutionTime = 0.1 s  ClockTime = 0 s

Time = 5.5

Courant Number mean: 0.123131 max: 0.583351
smoothSolver:  Solving for Ux, Initial residual = 0.00453235, Final residual = 3.32204e-07, No Iterations 2
smoothSolver:  Solving for Uy, Initial residual = 0.0042136, Final residual = 3.60708e-07, No Iterations 2
[...]
time step continuity errors : sum local = 5.97326e-09, global = -6.26804e-19, cumulative = -4.13284e-17
DICPCG:  Solving for p, Initial residual = 5.82915e-06, Final residual = 7.32163e-07, No Iterations 4
time step continuity errors : sum local = 6.42952e-09, global = 5.98641e-19, cumulative = -4.07297e-17
ExecutionTime = 0.66 s  ClockTime = 1 s

Time = 48.7

Courant Number mean: 0.225465 max: 0.608424
smoothSolver:  Solving for Ux, Initial residual = 9.53661e-06, Final residual = 9.53661e-06, No Iterations 0
smoothSolver:  Solving for Uy, Initial residual = 9.26969e-06, Final residual = 9.26969e-06, No Iterations 0
DICPCG:  Solving for p, Initial residual = 6.99582e-06, Final residual = 9.59496e-07, No Iterations 4
time step continuity errors : sum local = 8.93781e-09, global = -5.75982e-19, cumulative = -4.13057e-17
DICPCG:  Solving for p, Initial residual = 5.8743e-06, Final residual = 7.85926e-07, No Iterations 14
time step continuity errors : sum local = 5.13217e-09, global = 1.0895e-18, cumulative = -4.02162e-17
ExecutionTime = 0.66 s  ClockTime = 1 s

Time = 48.75

Courant Number mean: 0.225469 max: 0.608425
smoothSolver:  Solving for Ux, Initial residual = 9.46532e-06, Final residual = 9.46532e-06, No Iterations 0
smoothSolver:  Solving for Uy, Initial residual = 9.2583e-06, Final residual = 9.2583e-06, No Iterations 0
DICPCG:  Solving for p, Initial residual = 7.14509e-06, Final residual = 7.07897e-07, No Iterations 4
time step continuity errors : sum local = 5.25052e-09, global = -1.92912e-19, cumulative = -4.04091e-17
DICPCG:  Solving for p, Initial residual = 5.73721e-06, Final residual = 5.04501e-07, No Iterations 4
time step continuity errors : sum local = 3.8763e-09, global = -4.88103e-19, cumulative = -4.08972e-17
ExecutionTime = 0.67 s  ClockTime = 1 s

Time = 48.8

Courant Number mean: 0.225473 max: 0.608426
smoothSolver:  Solving for Ux, Initial residual = 9.41282e-06, Final residual = 9.41282e-06, No Iterations 0
smoothSolver:  Solving for Uy, Initial residual = 9.21266e-06, Final residual = 9.21266e-06, No Iterations 0
DICPCG:  Solving for p, Initial residual = 6.89968e-06, Final residual = 6.55132e-07, No Iterations 4
time step continuity errors : sum local = 4.73158e-09, global = -3.21661e-19, cumulative = -4.12189e-17
DICPCG:  Solving for p, Initial residual = 5.68012e-06, Final residual = 5.50091e-07, No Iterations 4
time step continuity errors : sum local = 3.80973e-09, global = -1.01009e-19, cumulative = -4.13199e-17
ExecutionTime = 0.67 s  ClockTime = 1 s

Time = 48.85

Courant Number mean: 0.225477 max: 0.608427
smoothSolver:  Solving for Ux, Initial residual = 9.38541e-06, Final residual = 9.38541e-06, No Iterations 0
smoothSolver:  Solving for Uy, Initial residual = 9.15159e-06, Final residual = 9.15159e-06, No Iterations 0
DICPCG:  Solving for p, Initial residual = 6.7503e-06, Final residual = 7.06348e-07, No Iterations 4
time step continuity errors : sum local = 4.96765e-09, global = 5.76935e-19, cumulative = -4.0743e-17
DICPCG:  Solving for p, Initial residual = 5.67426e-06, Final residual = 6.3697e-07, No Iterations 4
time step continuity errors : sum local = 5.02307e-09, global = -1.29173e-19, cumulative = -4.08721e-17
ExecutionTime = 0.67 s  ClockTime = 1 s

Time = 48.9

Courant Number mean: 0.225481 max: 0.608428
smoothSolver:  Solving for Ux, Initial residual = 9.35204e-06, Final residual = 9.35204e-06, No Iterations 0
smoothSolver:  Solving for Uy, Initial residual = 9.09939e-06, Final residual = 9.09939e-06, No Iterations 0
DICPCG:  Solving for p, Initial residual = 6.81747e-06, Final residual = 8.3005e-07, No Iterations 4
time step continuity errors : sum local = 7.14833e-09, global = -6.69897e-19, cumulative = -4.1542e-17
DICPCG:  Solving for p, Initial residual = 5.71671e-06, Final residual = 8.51527e-07, No Iterations 4
time step continuity errors : sum local = 7.97683e-09, global = 4.45116e-19, cumulative = -4.10969e-17
ExecutionTime = 0.67 s  ClockTime = 1 s

Time = 48.95

Courant Number mean: 0.225485 max: 0.608429
smoothSolver:  Solving for Ux, Initial residual = 9.31493e-06, Final residual = 9.31493e-06, No Iterations 0
smoothSolver:  Solving for Uy, Initial residual = 9.05312e-06, Final residual = 9.05312e-06, No Iterations 0
DICPCG:  Solving for p, Initial residual = 6.83641e-06, Final residual = 7.30379e-07, No Iterations 15
time step continuity errors : sum local = 4.78534e-09, global = -2.38016e-19, cumulative = -4.13349e-17
DICPCG:  Solving for p, Initial residual = 5.60485e-06, Final residual = 5.25017e-07, No Iterations 4
time step continuity errors : sum local = 3.64242e-09, global = 6.50733e-19, cumulative = -4.06842e-17
ExecutionTime = 0.67 s  ClockTime = 1 s

Time = 49

Courant Number mean: 0.225489 max: 0.60843
smoothSolver:  Solving for Ux, Initial residual = 9.23389e-06, Final residual = 9.23389e-06, No Iterations 0
smoothSolver:  Solving for Uy, Initial residual = 9.0545e-06, Final residual = 9.0545e-06, No Iterations 0
DICPCG:  Solving for p, Initial residual = 6.93513e-06, Final residual = 6.5909e-07, No Iterations 4
time step continuity errors : sum local = 4.88574e-09, global = 9.73029e-20, cumulative = -4.05869e-17
DICPCG:  Solving for p, Initial residual = 5.63004e-06, Final residual = 5.15921e-07, No Iterations 4
time step continuity errors : sum local = 3.92366e-09, global = -7.98329e-20, cumulative = -4.06667e-17
ExecutionTime = 0.67 s  ClockTime = 1 s

Time = 49.05

Courant Number mean: 0.225493 max: 0.608431
smoothSolver:  Solving for Ux, Initial residual = 9.19561e-06, Final residual = 9.19561e-06, No Iterations 0
smoothSolver:  Solving for Uy, Initial residual = 8.99588e-06, Final residual = 8.99588e-06, No Iterations 0
DICPCG:  Solving for p, Initial residual = 6.63774e-06, Final residual = 6.14117e-07, No Iterations 4
time step continuity errors : sum local = 4.55589e-09, global = -7.48565e-20, cumulative = -4.07416e-17
DICPCG:  Solving for p, Initial residual = 5.5666e-06, Final residual = 5.34258e-07, No Iterations 4
time step continuity errors : sum local = 3.84878e-09, global = 1.82853e-19, cumulative = -4.05587e-17
ExecutionTime = 0.67 s  ClockTime = 1 s

Time = 49.1

Courant Number mean: 0.225497 max: 0.608431
smoothSolver:  Solving for Ux, Initial residual = 9.1657e-06, Final residual = 9.1657e-06, No Iterations 0
smoothSolver:  Solving for Uy, Initial residual = 8.93831e-06, Final residual = 8.93831e-06, No Iterations 0
DICPCG:  Solving for p, Initial residual = 6.56734e-06, Final residual = 6.56967e-07, No Iterations 4
time step continuity errors : sum local = 4.42296e-09, global = -5.77041e-19, cumulative = -4.11358e-17
DICPCG:  Solving for p, Initial residual = 5.53239e-06, Final residual = 5.87687e-07, No Iterations 4
time step continuity errors : sum local = 4.41615e-09, global = 2.99426e-19, cumulative = -4.08364e-17
ExecutionTime = 0.68 s  ClockTime = 1 s

Time = 49.15

Courant Number mean: 0.225501 max: 0.608432
smoothSolver:  Solving for Ux, Initial residual = 9.13184e-06, Final residual = 9.13184e-06, No Iterations 0
smoothSolver:  Solving for Uy, Initial residual = 8.88788e-06, Final residual = 8.88788e-06, No Iterations 0
DICPCG:  Solving for p, Initial residual = 6.64067e-06, Final residual = 7.6777e-07, No Iterations 4
time step continuity errors : sum local = 6.38766e-09, global = 9.28136e-19, cumulative = -3.99082e-17
DICPCG:  Solving for p, Initial residual = 5.57187e-06, Final residual = 7.63559e-07, No Iterations 4
time step continuity errors : sum local = 6.99951e-09, global = -2.20758e-19, cumulative = -4.0129e-17
ExecutionTime = 0.68 s  ClockTime = 1 s

Time = 49.2

Courant Number mean: 0.225505 max: 0.608433
smoothSolver:  Solving for Ux, Initial residual = 9.09645e-06, Final residual = 9.09645e-06, No Iterations 0
smoothSolver:  Solving for Uy, Initial residual = 8.84177e-06, Final residual = 8.84177e-06, No Iterations 0
DICPCG:  Solving for p, Initial residual = 6.66911e-06, Final residual = 9.9195e-07, No Iterations 4
time step continuity errors : sum local = 9.44707e-09, global = -9.08443e-20, cumulative = -4.02198e-17
DICPCG:  Solving for p, Initial residual = 5.62425e-06, Final residual = 7.63281e-07, No Iterations 14
time step continuity errors : sum local = 4.98567e-09, global = 3.98953e-19, cumulative = -3.98209e-17
ExecutionTime = 0.68 s  ClockTime = 1 s

Time = 49.25

Courant Number mean: 0.225509 max: 0.608434
smoothSolver:  Solving for Ux, Initial residual = 9.02335e-06, Final residual = 9.02335e-06, No Iterations 0
smoothSolver:  Solving for Uy, Initial residual = 8.8394e-06, Final residual = 8.8394e-06, No Iterations 0
DICPCG:  Solving for p, Initial residual = 6.90601e-06, Final residual = 7.18743e-07, No Iterations 4
time step continuity errors : sum local = 5.57555e-09, global = -1.04143e-18, cumulative = -4.08623e-17
DICPCG:  Solving for p, Initial residual = 5.49803e-06, Final residual = 4.99729e-07, No Iterations 4
time step continuity errors : sum local = 4.14328e-09, global = 2.68615e-19, cumulative = -4.05937e-17
ExecutionTime = 0.68 s  ClockTime = 1 s

Time = 49.3

Courant Number mean: 0.225513 max: 0.608435
smoothSolver:  Solving for Ux, Initial residual = 8.97555e-06, Final residual = 8.97555e-06, No Iterations 0
smoothSolver:  Solving for Uy, Initial residual = 8.79055e-06, Final residual = 8.79055e-06, No Iterations 0
DICPCG:  Solving for p, Initial residual = 6.63047e-06, Final residual = 6.46396e-07, No Iterations 4
time step continuity errors : sum local = 5.12716e-09, global = 4.92973e-19, cumulative = -4.01007e-17
DICPCG:  Solving for p, Initial residual = 5.44378e-06, Final residual = 5.41505e-07, No Iterations 4
time step continuity errors : sum local = 4.2823e-09, global = -5.28337e-19, cumulative = -4.0629e-17
ExecutionTime = 0.68 s  ClockTime = 1 s

Time = 49.35

Courant Number mean: 0.225517 max: 0.608436
smoothSolver:  Solving for Ux, Initial residual = 8.95095e-06, Final residual = 8.95095e-06, No Iterations 0
smoothSolver:  Solving for Uy, Initial residual = 8.72972e-06, Final residual = 8.72972e-06, No Iterations 0
DICPCG:  Solving for p, Initial residual = 6.41441e-06, Final residual = 6.56848e-07, No Iterations 4
time step continuity errors : sum local = 4.54199e-09, global = 9.23054e-19, cumulative = -3.9706e-17
DICPCG:  Solving for p, Initial residual = 5.40629e-06, Final residual = 5.71943e-07, No Iterations 4
time step continuity errors : sum local = 3.88368e-09, global = 6.78897e-19, cumulative = -3.90271e-17
ExecutionTime = 0.68 s  ClockTime = 1 s

Time = 49.4

Courant Number mean: 0.225521 max: 0.608437
smoothSolver:  Solving for Ux, Initial residual = 8.91942e-06, Final residual = 8.91942e-06, No Iterations 0
smoothSolver:  Solving for Uy, Initial residual = 8.67853e-06, Final residual = 8.67853e-06, No Iterations 0
DICPCG:  Solving for p, Initial residual = 6.4892e-06, Final residual = 7.25892e-07, No Iterations 4
time step continuity errors : sum local = 5.67462e-09, global = -2.8185e-19, cumulative = -3.93089e-17
DICPCG:  Solving for p, Initial residual = 5.44101e-06, Final residual = 6.9882e-07, No Iterations 4
time step continuity errors : sum local = 6.12355e-09, global = 2.99003e-19, cumulative = -3.90099e-17
ExecutionTime = 0.68 s  ClockTime = 1 s

Time = 49.45

Courant Number mean: 0.225524 max: 0.608438
smoothSolver:  Solving for Ux, Initial residual = 8.88523e-06, Final residual = 8.88523e-06, No Iterations 0
smoothSolver:  Solving for Uy, Initial residual = 8.63317e-06, Final residual = 8.63317e-06, No Iterations 0
DICPCG:  Solving for p, Initial residual = 6.51835e-06, Final residual = 9.07613e-07, No Iterations 4
time step continuity errors : sum local = 8.46035e-09, global = -2.06888e-19, cumulative = -3.92168e-17
DICPCG:  Solving for p, Initial residual = 5.4835e-06, Final residual = 7.52771e-07, No Iterations 14
time step continuity errors : sum local = 4.91636e-09, global = 3.31084e-19, cumulative = -3.88857e-17
ExecutionTime = 0.68 s  ClockTime = 1 s

Time = 49.5

Courant Number mean: 0.225528 max: 0.608439
smoothSolver:  Solving for Ux, Initial residual = 8.81774e-06, Final residual = 8.81774e-06, No Iterations 0
smoothSolver:  Solving for Uy, Initial residual = 8.62258e-06, Final residual = 8.62258e-06, No Iterations 0
DICPCG:  Solving for p, Initial residual = 6.68581e-06, Final residual = 6.78764e-07, No Iterations 4
time step continuity errors : sum local = 5.03665e-09, global = -6.83979e-19, cumulative = -3.95697e-17
DICPCG:  Solving for p, Initial residual = 5.36005e-06, Final residual = 4.75729e-07, No Iterations 4
time step continuity errors : sum local = 3.67331e-09, global = -2.29758e-19, cumulative = -3.97995e-17
ExecutionTime = 0.69 s  ClockTime = 1 s

Time = 49.55

Courant Number mean: 0.225532 max: 0.60844
smoothSolver:  Solving for Ux, Initial residual = 8.76958e-06, Final residual = 8.76958e-06, No Iterations 0
smoothSolver:  Solving for Uy, Initial residual = 8.57934e-06, Final residual = 8.57934e-06, No Iterations 0
DICPCG:  Solving for p, Initial residual = 6.43742e-06, Final residual = 6.14458e-07, No Iterations 4
time step continuity errors : sum local = 4.46895e-09, global = 7.19978e-20, cumulative = -3.97275e-17
DICPCG:  Solving for p, Initial residual = 5.30134e-06, Final residual = 5.14938e-07, No Iterations 4
time step continuity errors : sum local = 3.60642e-09, global = 7.12355e-19, cumulative = -3.90151e-17
ExecutionTime = 0.69 s  ClockTime = 1 s

Time = 49.6

Courant Number mean: 0.225536 max: 0.60844
smoothSolver:  Solving for Ux, Initial residual = 8.74422e-06, Final residual = 8.74422e-06, No Iterations 0
smoothSolver:  Solving for Uy, Initial residual = 8.52156e-06, Final residual = 8.52156e-06, No Iterations 0
DICPCG:  Solving for p, Initial residual = 6.29334e-06, Final residual = 6.62556e-07, No Iterations 4
time step continuity errors : sum local = 4.60922e-09, global = 1.31396e-19, cumulative = -3.88837e-17
DICPCG:  Solving for p, Initial residual = 5.29343e-06, Final residual = 5.95474e-07, No Iterations 4
time step continuity errors : sum local = 4.64024e-09, global = 4.63962e-19, cumulative = -3.84198e-17
ExecutionTime = 0.69 s  ClockTime = 1 s

Time = 49.65

Courant Number mean: 0.22554 max: 0.608441
smoothSolver:  Solving for Ux, Initial residual = 8.71322e-06, Final residual = 8.71322e-06, No Iterations 0
smoothSolver:  Solving for Uy, Initial residual = 8.47233e-06, Final residual = 8.47233e-06, No Iterations 0
DICPCG:  Solving for p, Initial residual = 6.35188e-06, Final residual = 7.75209e-07, No Iterations 4
time step continuity errors : sum local = 6.61041e-09, global = 2.01848e-18, cumulative = -3.64013e-17
DICPCG:  Solving for p, Initial residual = 5.33112e-06, Final residual = 7.87211e-07, No Iterations 4
time step continuity errors : sum local = 7.32895e-09, global = 2.83544e-19, cumulative = -3.61178e-17
ExecutionTime = 0.69 s  ClockTime = 1 s

Time = 49.7

Courant Number mean: 0.225543 max: 0.608442
smoothSolver:  Solving for Ux, Initial residual = 8.67903e-06, Final residual = 8.67903e-06, No Iterations 0
smoothSolver:  Solving for Uy, Initial residual = 8.4286e-06, Final residual = 8.4286e-06, No Iterations 0
DICPCG:  Solving for p, Initial residual = 6.37288e-06, Final residual = 6.73917e-07, No Iterations 15
time step continuity errors : sum local = 4.4216e-09, global = 2.88838e-19, cumulative = -3.58289e-17
DICPCG:  Solving for p, Initial residual = 5.22807e-06, Final residual = 4.91243e-07, No Iterations 4
time step continuity errors : sum local = 3.40791e-09, global = 6.49463e-19, cumulative = -3.51795e-17
ExecutionTime = 0.69 s  ClockTime = 1 s

Time = 49.75

Courant Number mean: 0.225547 max: 0.608443
smoothSolver:  Solving for Ux, Initial residual = 8.60426e-06, Final residual = 8.60426e-06, No Iterations 0
smoothSolver:  Solving for Uy, Initial residual = 8.42745e-06, Final residual = 8.42745e-06, No Iterations 0
DICPCG:  Solving for p, Initial residual = 6.46244e-06, Final residual = 6.11943e-07, No Iterations 4
time step continuity errors : sum local = 4.49811e-09, global = 8.31892e-19, cumulative = -3.43476e-17
DICPCG:  Solving for p, Initial residual = 5.25206e-06, Final residual = 4.82001e-07, No Iterations 4
time step continuity errors : sum local = 3.622e-09, global = -8.3581e-19, cumulative = -3.51834e-17
ExecutionTime = 0.69 s  ClockTime = 1 s

Time = 49.8

Courant Number mean: 0.225551 max: 0.608444
smoothSolver:  Solving for Ux, Initial residual = 8.56856e-06, Final residual = 8.56856e-06, No Iterations 0
smoothSolver:  Solving for Uy, Initial residual = 8.3731e-06, Final residual = 8.3731e-06, No Iterations 0
DICPCG:  Solving for p, Initial residual = 6.18866e-06, Final residual = 5.73306e-07, No Iterations 4
time step continuity errors : sum local = 4.18782e-09, global = 1.41878e-19, cumulative = -3.50415e-17
DICPCG:  Solving for p, Initial residual = 5.19375e-06, Final residual = 5.01629e-07, No Iterations 4
time step continuity errors : sum local = 3.5417e-09, global = 9.36924e-19, cumulative = -3.41046e-17
ExecutionTime = 0.69 s  ClockTime = 1 s

Time = 49.85

Courant Number mean: 0.225555 max: 0.608445
smoothSolver:  Solving for Ux, Initial residual = 8.54044e-06, Final residual = 8.54044e-06, No Iterations 0
smoothSolver:  Solving for Uy, Initial residual = 8.3193e-06, Final residual = 8.3193e-06, No Iterations 0
DICPCG:  Solving for p, Initial residual = 6.13221e-06, Final residual = 6.23522e-07, No Iterations 4
time step continuity errors : sum local = 4.27424e-09, global = 3.04614e-19, cumulative = -3.38e-17
DICPCG:  Solving for p, Initial residual = 5.16637e-06, Final residual = 5.62025e-07, No Iterations 4
time step continuity errors : sum local = 4.29432e-09, global = 6.82285e-19, cumulative = -3.31177e-17
ExecutionTime = 0.69 s  ClockTime = 1 s

Time = 49.9

Courant Number mean: 0.225558 max: 0.608446
smoothSolver:  Solving for Ux, Initial residual = 8.50856e-06, Final residual = 8.50856e-06, No Iterations 0
smoothSolver:  Solving for Uy, Initial residual = 8.27196e-06, Final residual = 8.27196e-06, No Iterations 0
DICPCG:  Solving for p, Initial residual = 6.19602e-06, Final residual = 7.33332e-07, No Iterations 4
time step continuity errors : sum local = 6.15182e-09, global = -9.40418e-19, cumulative = -3.40581e-17
DICPCG:  Solving for p, Initial residual = 5.20394e-06, Final residual = 7.32478e-07, No Iterations 4
time step continuity errors : sum local = 6.74759e-09, global = -2.51781e-19, cumulative = -3.43099e-17
ExecutionTime = 0.69 s  ClockTime = 1 s

Time = 49.95

Courant Number mean: 0.225562 max: 0.608446
smoothSolver:  Solving for Ux, Initial residual = 8.47563e-06, Final residual = 8.47563e-06, No Iterations 0
smoothSolver:  Solving for Uy, Initial residual = 8.22866e-06, Final residual = 8.22866e-06, No Iterations 0
DICPCG:  Solving for p, Initial residual = 6.22204e-06, Final residual = 9.46706e-07, No Iterations 4
time step continuity errors : sum local = 9.02732e-09, global = -1.45774e-18, cumulative = -3.57676e-17
DICPCG:  Solving for p, Initial residual = 5.25593e-06, Final residual = 7.25718e-07, No Iterations 14
time step continuity errors : sum local = 4.7396e-09, global = 6.80803e-20, cumulative = -3.56995e-17
ExecutionTime = 0.69 s  ClockTime = 1 s

Time = 50

Courant Number mean: 0.225566 max: 0.608447
smoothSolver:  Solving for Ux, Initial residual = 8.40638e-06, Final residual = 8.40638e-06, No Iterations 0
smoothSolver:  Solving for Uy, Initial residual = 8.22748e-06, Final residual = 8.22748e-06, No Iterations 0
DICPCG:  Solving for p, Initial residual = 6.46469e-06, Final residual = 6.86032e-07, No Iterations 4
time step continuity errors : sum local = 5.36304e-09, global = -6.59415e-19, cumulative = -3.63589e-17
DICPCG:  Solving for p, Initial residual = 5.14047e-06, Final residual = 4.74042e-07, No Iterations 4
time step continuity errors : sum local = 3.98761e-09, global = 3.39872e-19, cumulative = -3.60191e-17
ExecutionTime = 0.69 s  ClockTime = 1 s

End

