/*---------------------------------------------------------------------------*\
| =========                 |                                                 |
| \\      /  F ield         | OpenFOAM: The Open Source CFD Toolbox           |
|  \\    /   O peration     | Version:  2506                                  |
|   \\  /    A nd           | Website:  www.openfoam.com                      |
|    \\/     M anipulation  |                                                 |
\*---------------------------------------------------------------------------*/
Build  : _615aae61-20250627 OPENFOAM=2506 version=2506
Arch   : "LSB;label=32;scalar=64"
Exec   : simpleFoam -parallel
Date   : Jan 01 2026
Time   : 03:10:01
Host   : 5bd91d4c474a
PID    : 4534
I/O    : uncollated
Case   : /home/openfoam/Projects/airFoil2D
nProcs : 8
Hosts  :
(
    (5bd91d4c474a 8)
)
Pstream initialized with:
    node communication : off [type=host] (8 ranks, 1 nodes)
    topology controls  : none
    consensus exchange : 0 (tuning: 0)
    exchange algorithm : 0
    commsType          : nonBlocking
    polling iterations : 0
trapFpe: Floating point exception trapping enabled (FOAM_SIGFPE).
fileModificationChecking : Monitoring run-time modified files using timeStampMaster (fileModificationSkew 5, maxFileModificationPolls 20)
allowSystemOperations : Allowing user-supplied system call operations

// * * * * * * * * * * * * * * * * * * * * * * * * * * * * * * * * * * * * * //
Create time

Create mesh for time = 0


SIMPLE: convergence criteria
    field p	 tolerance 1e-05
    field U	 tolerance 1e-05
    field nuTilda	 tolerance 1e-05

Reading field p

Reading field U

Reading/calculating face flux field phi

Selecting incompressible transport model Newtonian
Selecting turbulence model type RAS
Selecting RAS turbulence model SpalartAllmaras
Selecting patchDistMethod meshWave
ft2 term: inactive
RAS
{
    RASModel        SpalartAllmaras;
    turbulence      on;
    printCoeffs     on;
    sigmaNut        0.66666;
    kappa           0.41;
    Cb1             0.1355;
    Cb2             0.622;
    Cw2             0.3;
    Cw3             2;
    Cv1             7.1;
    Cs              0.3;
    ck              0.07;
    ft2             false;
    Ct3             1.2;
    Ct4             0.5;
}

No MRF models present

No finite volume options present

Starting time loop

momentumError momErr:
turbulenceFields turbulenceFields1: storing fields:
    turbulenceProperties:nut
    turbulenceProperties:nuEff
    turbulenceProperties:k
    turbulenceProperties:R
    turbulenceProperties:I
    turbulenceProperties:L
    turbulenceProperties:devReff
    turbulenceProperties:epsilon

Time = 1

smoothSolver:  Solving for Ux, Initial residual = 1, Final residual = 0.0010401, No Iterations 2
smoothSolver:  Solving for Uy, Initial residual = 1, Final residual = 0.00104017, No Iterations 2
GAMG:  Solving for p, Initial residual = 1, Final residual = 0.0924376, No Iterations 6
time step continuity errors : sum local = 0.000538058, global = 4.06251e-05, cumulative = 4.06251e-05
smoothSolver:  Solving for nuTilda, Initial residual = 1, Final residual = 0.0493018, No Iterations 4
ExecutionTime = 0.22 s  ClockTime = 1 s

Time = 2

smoothSolver:  Solving for Ux, Initial residual = 0.306742, Final residual = 0.0166331, No Iterations 4
smoothSolver:  Solving for Uy, Initial residual = 0.558224, Final residual = 0.0171727, No Iterations 4
GAMG:  Solving for p, Initial residual = 0.16729, Final residual = 0.0110855, No Iterations 4
time step continuity errors : sum local = 0.000500563, global = -3.69114e-06, cumulative = 3.69339e-05
smoothSolver:  Solving for nuTilda, Initial residual = 0.111172, Final residual = 0.0073981, No Iterations 4
ExecutionTime = 0.23 s  ClockTime = 1 s

Time = 3

smoothSolver:  Solving for Ux, Initial residual = 0.139921, Final residual = 0.00728908, No Iterations 4
smoothSolver:  Solving for Uy, Initial residual = 0.181933, Final residual = 0.00694382, No Iterations 4
GAMG:  Solving for p, Initial residual = 0.231578, Final residual = 0.0129718, No Iterations 5
time step continuity errors : sum local = 0.000515137, global = -1.1151e-05, cumulative = 2.57829e-05
smoothSolver:  Solving for nuTilda, Initial residual = 0.0873959, Final residual = 0.00579134, No Iterations 4
ExecutionTime = 0.24 s  ClockTime = 1 s

Time = 4

smoothSolver:  Solving for Ux, Initial residual = 0.0479257, Final residual = 0.00181386, No Iterations 4
smoothSolver:  Solving for Uy, Initial residual = 0.0695472, Final residual = 0.00253205, No Iterations 4
GAMG:  Solving for p, Initial residual = 0.618708, Final residual = 0.0534412, No Iterations 5
time step continuity errors : sum local = 0.000679455, global = -1.30488e-05, cumulative = 1.2734e-05
smoothSolver:  Solving for nuTilda, Initial residual = 0.0810922, Final residual = 0.00488485, No Iterations 4
ExecutionTime = 0.25 s  ClockTime = 1 s

Time = 5

smoothSolver:  Solving for Ux, Initial residual = 0.0828546, Final residual = 0.00409349, No Iterations 4
smoothSolver:  Solving for Uy, Initial residual = 0.14758, Final residual = 0.00463194, No Iterations 4
GAMG:  Solving for p, Initial residual = 0.264686, Final residual = 0.0183818, No Iterations 4
time step continuity errors : sum local = 0.000600063, global = -5.31247e-06, cumulative = 7.42157e-06
smoothSolver:  Solving for nuTilda, Initial residual = 0.0718881, Final residual = 0.00353327, No Iterations 4
bounding nuTilda, min: -2.33774e-05 max: 0.0824381 average: 0.000114625
ExecutionTime = 0.26 s  ClockTime = 1 s

Time = 6

smoothSolver:  Solving for Ux, Initial residual = 0.100874, Final residual = 0.00520948, No Iterations 4
smoothSolver:  Solving for Uy, Initial residual = 0.190102, Final residual = 0.00792339, No Iterations 4
GAMG:  Solving for p, Initial residual = 0.274903, Final residual = 0.0154725, No Iterations 5
time step continuity errors : sum local = 0.000470325, global = 7.8928e-06, cumulative = 1.53144e-05
smoothSolver:  Solving for nuTilda, Initial residual = 0.0552371, Final residual = 0.00184011, No Iterations 4
bounding nuTilda, min: -0.000130557 max: 0.119768 average: 0.000226165
ExecutionTime = 0.27 s  ClockTime = 1 s

Time = 7

smoothSolver:  Solving for Ux, Initial residual = 0.0699534, Final residual = 0.00254674, No Iterations 4
smoothSolver:  Solving for Uy, Initial residual = 0.133177, Final residual = 0.00386205, No Iterations 4
GAMG:  Solving for p, Initial residual = 0.68767, Final residual = 0.0619364, No Iterations 4
time step continuity errors : sum local = 0.000739972, global = -3.62927e-05, cumulative = -2.09784e-05
smoothSolver:  Solving for nuTilda, Initial residual = 0.0480162, Final residual = 0.000784742, No Iterations 4
bounding nuTilda, min: -0.00626497 max: 0.12967 average: 0.000357605
ExecutionTime = 0.28 s  ClockTime = 1 s

Time = 8

smoothSolver:  Solving for Ux, Initial residual = 0.0681758, Final residual = 0.00211743, No Iterations 4
smoothSolver:  Solving for Uy, Initial residual = 0.107094, Final residual = 0.00764352, No Iterations 2
GAMG:  Solving for p, Initial residual = 0.389353, Final residual = 0.0256167, No Iterations 4
time step continuity errors : sum local = 0.000583545, global = -2.34331e-07, cumulative = -2.12127e-05
smoothSolver:  Solving for nuTilda, Initial residual = 0.0325525, Final residual = 0.000452263, No Iterations 4
bounding nuTilda, min: -0.0154434 max: 0.179002 average: 0.000534643
ExecutionTime = 0.29 s  ClockTime = 1 s

Time = 9

smoothSolver:  Solving for Ux, Initial residual = 0.0622698, Final residual = 0.00270375, No Iterations 4
smoothSolver:  Solving for Uy, Initial residual = 0.0879999, Final residual = 0.00252665, No Iterations 4
GAMG:  Solving for p, Initial residual = 0.334911, Final residual = 0.0266207, No Iterations 4
time step continuity errors : sum local = 0.000629517, global = 1.63204e-05, cumulative = -4.8923e-06
smoothSolver:  Solving for nuTilda, Initial residual = 0.0225136, Final residual = 0.00195931, No Iterations 2
bounding nuTilda, min: -0.0226993 max: 0.189538 average: 0.000709315
ExecutionTime = 0.3 s  ClockTime = 1 s

Time = 10

smoothSolver:  Solving for Ux, Initial residual = 0.0465549, Final residual = 0.00197403, No Iterations 4
smoothSolver:  Solving for Uy, Initial residual = 0.0761509, Final residual = 0.00229688, No Iterations 4
GAMG:  Solving for p, Initial residual = 0.496244, Final residual = 0.0388161, No Iterations 4
time step continuity errors : sum local = 0.000541729, global = 8.94652e-06, cumulative = 4.05423e-06
smoothSolver:  Solving for nuTilda, Initial residual = 0.0208648, Final residual = 0.00129495, No Iterations 2
bounding nuTilda, min: -0.128955 max: 0.208552 average: 0.000846392
ExecutionTime = 0.31 s  ClockTime = 1 s

Time = 11

smoothSolver:  Solving for Ux, Initial residual = 0.0449943, Final residual = 0.00130502, No Iterations 4
smoothSolver:  Solving for Uy, Initial residual = 0.0732251, Final residual = 0.0070417, No Iterations 2
GAMG:  Solving for p, Initial residual = 0.368371, Final residual = 0.0268192, No Iterations 4
time step continuity errors : sum local = 0.000489065, global = 3.76229e-05, cumulative = 4.16771e-05
smoothSolver:  Solving for nuTilda, Initial residual = 0.0214338, Final residual = 0.00130668, No Iterations 2
bounding nuTilda, min: -0.00255629 max: 0.259625 average: 0.00103467
ExecutionTime = 0.33 s  ClockTime = 1 s

Time = 12

smoothSolver:  Solving for Ux, Initial residual = 0.0529264, Final residual = 0.00215582, No Iterations 4
smoothSolver:  Solving for Uy, Initial residual = 0.0780619, Final residual = 0.00252141, No Iterations 4
GAMG:  Solving for p, Initial residual = 0.293421, Final residual = 0.0259781, No Iterations 4
time step continuity errors : sum local = 0.000561279, global = -1.09312e-05, cumulative = 3.07459e-05
smoothSolver:  Solving for nuTilda, Initial residual = 0.0234081, Final residual = 0.00149624, No Iterations 2
bounding nuTilda, min: -0.0094416 max: 0.281414 average: 0.00119692
ExecutionTime = 0.34 s  ClockTime = 1 s

Time = 13

smoothSolver:  Solving for Ux, Initial residual = 0.0506443, Final residual = 0.00213317, No Iterations 4
smoothSolver:  Solving for Uy, Initial residual = 0.0703292, Final residual = 0.0024963, No Iterations 4
GAMG:  Solving for p, Initial residual = 0.358722, Final residual = 0.0296513, No Iterations 4
time step continuity errors : sum local = 0.000484587, global = -2.05949e-05, cumulative = 1.0151e-05
smoothSolver:  Solving for nuTilda, Initial residual = 0.0211245, Final residual = 0.00162029, No Iterations 2
bounding nuTilda, min: -0.00777845 max: 0.279487 average: 0.00137477
ExecutionTime = 0.34 s  ClockTime = 1 s

Time = 14

smoothSolver:  Solving for Ux, Initial residual = 0.0417475, Final residual = 0.00417384, No Iterations 2
smoothSolver:  Solving for Uy, Initial residual = 0.0601662, Final residual = 0.00530224, No Iterations 2
GAMG:  Solving for p, Initial residual = 0.620074, Final residual = 0.0450807, No Iterations 4
time step continuity errors : sum local = 0.000432672, global = -1.92307e-05, cumulative = -9.0797e-06
smoothSolver:  Solving for nuTilda, Initial residual = 0.0203088, Final residual = 0.00167324, No Iterations 2
bounding nuTilda, min: -0.0135991 max: 0.245958 average: 0.00155258
ExecutionTime = 0.36 s  ClockTime = 1 s

Time = 15

smoothSolver:  Solving for Ux, Initial residual = 0.0420659, Final residual = 0.00120197, No Iterations 4
smoothSolver:  Solving for Uy, Initial residual = 0.0586101, Final residual = 0.00438874, No Iterations 2
GAMG:  Solving for p, Initial residual = 0.396387, Final residual = 0.025789, No Iterations 4
time step continuity errors : sum local = 0.000362083, global = -9.34767e-06, cumulative = -1.84274e-05
smoothSolver:  Solving for nuTilda, Initial residual = 0.020812, Final residual = 0.00179582, No Iterations 2
bounding nuTilda, min: -0.0195809 max: 0.246145 average: 0.0017284
ExecutionTime = 0.36 s  ClockTime = 1 s

Time = 16

smoothSolver:  Solving for Ux, Initial residual = 0.0412143, Final residual = 0.00155969, No Iterations 4
smoothSolver:  Solving for Uy, Initial residual = 0.0603418, Final residual = 0.0055024, No Iterations 2
GAMG:  Solving for p, Initial residual = 0.394837, Final residual = 0.0317568, No Iterations 4
time step continuity errors : sum local = 0.000420614, global = 1.15437e-05, cumulative = -6.88368e-06
smoothSolver:  Solving for nuTilda, Initial residual = 0.021774, Final residual = 0.0020073, No Iterations 2
bounding nuTilda, min: -0.0175833 max: 0.246096 average: 0.0019071
ExecutionTime = 0.37 s  ClockTime = 1 s

Time = 17

smoothSolver:  Solving for Ux, Initial residual = 0.036964, Final residual = 0.00133688, No Iterations 4
smoothSolver:  Solving for Uy, Initial residual = 0.0540941, Final residual = 0.00162038, No Iterations 4
GAMG:  Solving for p, Initial residual = 0.570688, Final residual = 0.0559581, No Iterations 4
time step continuity errors : sum local = 0.000494487, global = -2.114e-06, cumulative = -8.99768e-06
smoothSolver:  Solving for nuTilda, Initial residual = 0.0212931, Final residual = 0.00210396, No Iterations 2
bounding nuTilda, min: -0.0115423 max: 0.261286 average: 0.00211057
ExecutionTime = 0.39 s  ClockTime = 1 s

Time = 18

smoothSolver:  Solving for Ux, Initial residual = 0.0361076, Final residual = 0.00107294, No Iterations 4
smoothSolver:  Solving for Uy, Initial residual = 0.0495261, Final residual = 0.00482887, No Iterations 2
GAMG:  Solving for p, Initial residual = 0.368222, Final residual = 0.0319494, No Iterations 4
time step continuity errors : sum local = 0.000424245, global = 1.46357e-05, cumulative = 5.63803e-06
smoothSolver:  Solving for nuTilda, Initial residual = 0.0217823, Final residual = 0.000737271, No Iterations 4
bounding nuTilda, min: -0.00759122 max: 0.313719 average: 0.00234546
ExecutionTime = 0.41 s  ClockTime = 1 s

Time = 19

smoothSolver:  Solving for Ux, Initial residual = 0.0386933, Final residual = 0.00146922, No Iterations 4
smoothSolver:  Solving for Uy, Initial residual = 0.0511835, Final residual = 0.00147811, No Iterations 4
GAMG:  Solving for p, Initial residual = 0.3329, Final residual = 0.0221603, No Iterations 4
time step continuity errors : sum local = 0.000325534, global = -1.20173e-05, cumulative = -6.37925e-06
smoothSolver:  Solving for nuTilda, Initial residual = 0.0223071, Final residual = 0.000802416, No Iterations 4
bounding nuTilda, min: -0.0184852 max: 0.334199 average: 0.00259453
ExecutionTime = 0.42 s  ClockTime = 1 s

Time = 20

smoothSolver:  Solving for Ux, Initial residual = 0.0375944, Final residual = 0.0014297, No Iterations 4
smoothSolver:  Solving for Uy, Initial residual = 0.0508339, Final residual = 0.00150331, No Iterations 4
GAMG:  Solving for p, Initial residual = 0.39129, Final residual = 0.0355476, No Iterations 4
time step continuity errors : sum local = 0.000439058, global = -8.25781e-06, cumulative = -1.46371e-05
smoothSolver:  Solving for nuTilda, Initial residual = 0.0216398, Final residual = 0.000845845, No Iterations 4
bounding nuTilda, min: -0.0122749 max: 0.331963 average: 0.00293223
ExecutionTime = 0.42 s  ClockTime = 1 s

Time = 21

smoothSolver:  Solving for Ux, Initial residual = 0.0335961, Final residual = 0.00330783, No Iterations 2
smoothSolver:  Solving for Uy, Initial residual = 0.048814, Final residual = 0.0044849, No Iterations 2
GAMG:  Solving for p, Initial residual = 0.549178, Final residual = 0.0458007, No Iterations 5
time step continuity errors : sum local = 0.000383491, global = 8.14352e-06, cumulative = -6.49353e-06
smoothSolver:  Solving for nuTilda, Initial residual = 0.0211213, Final residual = 0.00086091, No Iterations 4
bounding nuTilda, min: -0.00552675 max: 0.392952 average: 0.00334579
ExecutionTime = 0.43 s  ClockTime = 1 s

Time = 22

smoothSolver:  Solving for Ux, Initial residual = 0.0318527, Final residual = 0.00098377, No Iterations 4
smoothSolver:  Solving for Uy, Initial residual = 0.0480334, Final residual = 0.00418673, No Iterations 2
GAMG:  Solving for p, Initial residual = 0.437773, Final residual = 0.043504, No Iterations 4
time step continuity errors : sum local = 0.000447266, global = 4.93696e-06, cumulative = -1.55657e-06
smoothSolver:  Solving for nuTilda, Initial residual = 0.0215663, Final residual = 0.00089659, No Iterations 4
bounding nuTilda, min: -0.0159714 max: 0.443149 average: 0.00380318
ExecutionTime = 0.44 s  ClockTime = 1 s

Time = 23

smoothSolver:  Solving for Ux, Initial residual = 0.0308269, Final residual = 0.0011063, No Iterations 4
smoothSolver:  Solving for Uy, Initial residual = 0.046795, Final residual = 0.00136295, No Iterations 4
GAMG:  Solving for p, Initial residual = 0.421484, Final residual = 0.0370957, No Iterations 4
time step continuity errors : sum local = 0.000366164, global = 4.19446e-06, cumulative = 2.63789e-06
smoothSolver:  Solving for nuTilda, Initial residual = 0.021866, Final residual = 0.000875766, No Iterations 4
bounding nuTilda, min: -0.00914149 max: 0.461689 average: 0.00434918
ExecutionTime = 0.45 s  ClockTime = 1 s

Time = 24

smoothSolver:  Solving for Ux, Initial residual = 0.0295165, Final residual = 0.00100521, No Iterations 4
smoothSolver:  Solving for Uy, Initial residual = 0.0449741, Final residual = 0.00137192, No Iterations 4
GAMG:  Solving for p, Initial residual = 0.512958, Final residual = 0.0407533, No Iterations 4
time step continuity errors : sum local = 0.000318196, global = 4.91361e-06, cumulative = 7.5515e-06
smoothSolver:  Solving for nuTilda, Initial residual = 0.022098, Final residual = 0.000854601, No Iterations 4
bounding nuTilda, min: -0.00413805 max: 0.515012 average: 0.00496981
ExecutionTime = 0.46 s  ClockTime = 1 s

Time = 25

smoothSolver:  Solving for Ux, Initial residual = 0.0282809, Final residual = 0.00083095, No Iterations 4
smoothSolver:  Solving for Uy, Initial residual = 0.0439633, Final residual = 0.00421849, No Iterations 2
GAMG:  Solving for p, Initial residual = 0.385023, Final residual = 0.0318967, No Iterations 4
time step continuity errors : sum local = 0.000328649, global = -2.34411e-05, cumulative = -1.58896e-05
smoothSolver:  Solving for nuTilda, Initial residual = 0.0223599, Final residual = 0.000829335, No Iterations 4
bounding nuTilda, min: -0.0106522 max: 0.571812 average: 0.00566419
ExecutionTime = 0.46 s  ClockTime = 1 s

Time = 26

smoothSolver:  Solving for Ux, Initial residual = 0.0290465, Final residual = 0.000996219, No Iterations 4
smoothSolver:  Solving for Uy, Initial residual = 0.0434525, Final residual = 0.00407274, No Iterations 2
GAMG:  Solving for p, Initial residual = 0.312725, Final residual = 0.02719, No Iterations 4
time step continuity errors : sum local = 0.000335414, global = -3.3441e-05, cumulative = -4.93306e-05
smoothSolver:  Solving for nuTilda, Initial residual = 0.0223038, Final residual = 0.000766086, No Iterations 4
bounding nuTilda, min: -0.00628501 max: 0.590817 average: 0.00645551
ExecutionTime = 0.48 s  ClockTime = 1 s

Time = 27

smoothSolver:  Solving for Ux, Initial residual = 0.0281037, Final residual = 0.000945654, No Iterations 4
smoothSolver:  Solving for Uy, Initial residual = 0.041315, Final residual = 0.00119665, No Iterations 4
GAMG:  Solving for p, Initial residual = 0.336077, Final residual = 0.0301339, No Iterations 4
time step continuity errors : sum local = 0.000334184, global = -1.76404e-05, cumulative = -6.6971e-05
smoothSolver:  Solving for nuTilda, Initial residual = 0.0224405, Final residual = 0.00073688, No Iterations 4
bounding nuTilda, min: -0.00661312 max: 0.662204 average: 0.00730797
ExecutionTime = 0.49 s  ClockTime = 1 s

Time = 28

smoothSolver:  Solving for Ux, Initial residual = 0.0259281, Final residual = 0.00230524, No Iterations 2
smoothSolver:  Solving for Uy, Initial residual = 0.0382461, Final residual = 0.00377312, No Iterations 2
GAMG:  Solving for p, Initial residual = 0.415858, Final residual = 0.0397155, No Iterations 4
time step continuity errors : sum local = 0.000327619, global = -1.18533e-05, cumulative = -7.88243e-05
smoothSolver:  Solving for nuTilda, Initial residual = 0.0223888, Final residual = 0.000717828, No Iterations 4
bounding nuTilda, min: -0.00869509 max: 0.715145 average: 0.00825261
ExecutionTime = 0.5 s  ClockTime = 1 s

Time = 29

smoothSolver:  Solving for Ux, Initial residual = 0.0247086, Final residual = 0.00223101, No Iterations 2
smoothSolver:  Solving for Uy, Initial residual = 0.0374909, Final residual = 0.00326397, No Iterations 2
GAMG:  Solving for p, Initial residual = 0.432838, Final residual = 0.0428196, No Iterations 4
time step continuity errors : sum local = 0.000325081, global = 7.78248e-06, cumulative = -7.10418e-05
smoothSolver:  Solving for nuTilda, Initial residual = 0.0225525, Final residual = 0.00071104, No Iterations 4
bounding nuTilda, min: -0.00726213 max: 0.766144 average: 0.00926258
ExecutionTime = 0.51 s  ClockTime = 1 s

Time = 30

smoothSolver:  Solving for Ux, Initial residual = 0.0242397, Final residual = 0.000738793, No Iterations 4
smoothSolver:  Solving for Uy, Initial residual = 0.0367778, Final residual = 0.00324887, No Iterations 2
GAMG:  Solving for p, Initial residual = 0.38935, Final residual = 0.0341585, No Iterations 5
time step continuity errors : sum local = 0.00028153, global = 1.61572e-05, cumulative = -5.48846e-05
smoothSolver:  Solving for nuTilda, Initial residual = 0.0227457, Final residual = 0.000722124, No Iterations 4
bounding nuTilda, min: -0.012253 max: 0.845041 average: 0.0103276
ExecutionTime = 0.52 s  ClockTime = 1 s

Time = 31

smoothSolver:  Solving for Ux, Initial residual = 0.0241368, Final residual = 0.000737182, No Iterations 4
smoothSolver:  Solving for Uy, Initial residual = 0.035082, Final residual = 0.00320673, No Iterations 2
GAMG:  Solving for p, Initial residual = 0.403289, Final residual = 0.0293964, No Iterations 6
time step continuity errors : sum local = 0.000217325, global = 1.12485e-06, cumulative = -5.37597e-05
smoothSolver:  Solving for nuTilda, Initial residual = 0.0227059, Final residual = 0.000699568, No Iterations 4
bounding nuTilda, min: -0.00926469 max: 0.879005 average: 0.0114992
ExecutionTime = 0.53 s  ClockTime = 1 s

Time = 32

smoothSolver:  Solving for Ux, Initial residual = 0.0246627, Final residual = 0.00224539, No Iterations 2
smoothSolver:  Solving for Uy, Initial residual = 0.0356034, Final residual = 0.00291157, No Iterations 2
GAMG:  Solving for p, Initial residual = 0.340701, Final residual = 0.0290396, No Iterations 4
time step continuity errors : sum local = 0.000236899, global = 9.14843e-06, cumulative = -4.46113e-05
smoothSolver:  Solving for nuTilda, Initial residual = 0.0225099, Final residual = 0.000683808, No Iterations 4
bounding nuTilda, min: -0.0096644 max: 0.984911 average: 0.0126791
ExecutionTime = 0.54 s  ClockTime = 1 s

Time = 33

smoothSolver:  Solving for Ux, Initial residual = 0.0256715, Final residual = 0.00249942, No Iterations 2
smoothSolver:  Solving for Uy, Initial residual = 0.0359856, Final residual = 0.00292479, No Iterations 2
GAMG:  Solving for p, Initial residual = 0.274769, Final residual = 0.0240301, No Iterations 4
time step continuity errors : sum local = 0.000231947, global = -1.87879e-07, cumulative = -4.47992e-05
smoothSolver:  Solving for nuTilda, Initial residual = 0.0226514, Final residual = 0.000654289, No Iterations 4
bounding nuTilda, min: -0.0149409 max: 1.04675 average: 0.0139538
ExecutionTime = 0.56 s  ClockTime = 1 s

Time = 34

smoothSolver:  Solving for Ux, Initial residual = 0.0260717, Final residual = 0.000797597, No Iterations 4
smoothSolver:  Solving for Uy, Initial residual = 0.0366356, Final residual = 0.00343544, No Iterations 2
GAMG:  Solving for p, Initial residual = 0.24619, Final residual = 0.01998, No Iterations 5
time step continuity errors : sum local = 0.000204462, global = -8.54479e-06, cumulative = -5.3344e-05
smoothSolver:  Solving for nuTilda, Initial residual = 0.0226658, Final residual = 0.000590692, No Iterations 4
bounding nuTilda, min: -0.0114228 max: 1.14994 average: 0.0153433
ExecutionTime = 0.57 s  ClockTime = 1 s

Time = 35

smoothSolver:  Solving for Ux, Initial residual = 0.0253169, Final residual = 0.000777978, No Iterations 4
smoothSolver:  Solving for Uy, Initial residual = 0.0366862, Final residual = 0.00101576, No Iterations 4
GAMG:  Solving for p, Initial residual = 0.257758, Final residual = 0.0250197, No Iterations 5
time step continuity errors : sum local = 0.00023942, global = -1.95154e-05, cumulative = -7.28594e-05
smoothSolver:  Solving for nuTilda, Initial residual = 0.0225019, Final residual = 0.000512687, No Iterations 4
bounding nuTilda, min: -0.011718 max: 1.26954 average: 0.0168064
ExecutionTime = 0.59 s  ClockTime = 1 s

Time = 36

smoothSolver:  Solving for Ux, Initial residual = 0.0253367, Final residual = 0.00250646, No Iterations 2
smoothSolver:  Solving for Uy, Initial residual = 0.0345076, Final residual = 0.00334886, No Iterations 2
GAMG:  Solving for p, Initial residual = 0.298172, Final residual = 0.0287241, No Iterations 6
time step continuity errors : sum local = 0.000223861, global = 1.10571e-05, cumulative = -6.18023e-05
smoothSolver:  Solving for nuTilda, Initial residual = 0.0221368, Final residual = 0.00044115, No Iterations 4
bounding nuTilda, min: -0.015844 max: 1.34511 average: 0.0183937
ExecutionTime = 0.61 s  ClockTime = 1 s

Time = 37

smoothSolver:  Solving for Ux, Initial residual = 0.0266952, Final residual = 0.00254203, No Iterations 2
smoothSolver:  Solving for Uy, Initial residual = 0.0344902, Final residual = 0.00310104, No Iterations 2
GAMG:  Solving for p, Initial residual = 0.358171, Final residual = 0.0289021, No Iterations 5
time step continuity errors : sum local = 0.000180728, global = -1.63464e-06, cumulative = -6.3437e-05
smoothSolver:  Solving for nuTilda, Initial residual = 0.0219888, Final residual = 0.00206494, No Iterations 2
bounding nuTilda, min: -0.0123689 max: 1.37969 average: 0.0198429
ExecutionTime = 0.62 s  ClockTime = 1 s

Time = 38

smoothSolver:  Solving for Ux, Initial residual = 0.0279952, Final residual = 0.00271911, No Iterations 2
smoothSolver:  Solving for Uy, Initial residual = 0.0356616, Final residual = 0.00326843, No Iterations 2
GAMG:  Solving for p, Initial residual = 0.363675, Final residual = 0.0327371, No Iterations 5
time step continuity errors : sum local = 0.000194899, global = -8.93267e-07, cumulative = -6.43302e-05
smoothSolver:  Solving for nuTilda, Initial residual = 0.0222391, Final residual = 0.00191761, No Iterations 2
bounding nuTilda, min: -0.0125687 max: 1.50743 average: 0.0214164
ExecutionTime = 0.64 s  ClockTime = 1 s

Time = 39

smoothSolver:  Solving for Ux, Initial residual = 0.0290494, Final residual = 0.00276303, No Iterations 2
smoothSolver:  Solving for Uy, Initial residual = 0.0362583, Final residual = 0.00345608, No Iterations 2
GAMG:  Solving for p, Initial residual = 0.315615, Final residual = 0.0238407, No Iterations 6
time step continuity errors : sum local = 0.000150128, global = 6.7859e-06, cumulative = -5.75443e-05
smoothSolver:  Solving for nuTilda, Initial residual = 0.0224356, Final residual = 0.00177236, No Iterations 2
bounding nuTilda, min: -0.0212847 max: 1.61217 average: 0.0231017
ExecutionTime = 0.66 s  ClockTime = 1 s

Time = 40

smoothSolver:  Solving for Ux, Initial residual = 0.0298339, Final residual = 0.00281402, No Iterations 2
smoothSolver:  Solving for Uy, Initial residual = 0.0376081, Final residual = 0.00375049, No Iterations 2
GAMG:  Solving for p, Initial residual = 0.255203, Final residual = 0.0216315, No Iterations 6
time step continuity errors : sum local = 0.000154614, global = 4.88025e-06, cumulative = -5.26641e-05
smoothSolver:  Solving for nuTilda, Initial residual = 0.022759, Final residual = 0.00163652, No Iterations 2
bounding nuTilda, min: -0.0140146 max: 1.6835 average: 0.0248648
ExecutionTime = 0.67 s  ClockTime = 1 s

Time = 41

smoothSolver:  Solving for Ux, Initial residual = 0.0306227, Final residual = 0.0029766, No Iterations 2
smoothSolver:  Solving for Uy, Initial residual = 0.0388871, Final residual = 0.00104593, No Iterations 4
GAMG:  Solving for p, Initial residual = 0.230124, Final residual = 0.0175526, No Iterations 6
time step continuity errors : sum local = 0.000136646, global = 6.41852e-06, cumulative = -4.62456e-05
smoothSolver:  Solving for nuTilda, Initial residual = 0.0232675, Final residual = 0.00159734, No Iterations 2
bounding nuTilda, min: -0.0352198 max: 1.74414 average: 0.0265946
ExecutionTime = 0.69 s  ClockTime = 1 s

Time = 42

smoothSolver:  Solving for Ux, Initial residual = 0.0319131, Final residual = 0.0031414, No Iterations 2
smoothSolver:  Solving for Uy, Initial residual = 0.0393285, Final residual = 0.00103036, No Iterations 4
GAMG:  Solving for p, Initial residual = 0.221771, Final residual = 0.0184859, No Iterations 6
time step continuity errors : sum local = 0.000143645, global = -2.41805e-06, cumulative = -4.86636e-05
smoothSolver:  Solving for nuTilda, Initial residual = 0.0239577, Final residual = 0.00161734, No Iterations 2
bounding nuTilda, min: -0.0392374 max: 1.80925 average: 0.0282417
ExecutionTime = 0.7 s  ClockTime = 1 s

Time = 43

smoothSolver:  Solving for Ux, Initial residual = 0.0327478, Final residual = 0.00320419, No Iterations 2
smoothSolver:  Solving for Uy, Initial residual = 0.0394673, Final residual = 0.00101372, No Iterations 4
GAMG:  Solving for p, Initial residual = 0.222121, Final residual = 0.0204604, No Iterations 6
time step continuity errors : sum local = 0.000150329, global = -7.83496e-06, cumulative = -5.64986e-05
smoothSolver:  Solving for nuTilda, Initial residual = 0.0247959, Final residual = 0.00162727, No Iterations 2
bounding nuTilda, min: -0.0282679 max: 1.87575 average: 0.0298112
ExecutionTime = 0.71 s  ClockTime = 1 s

Time = 44

smoothSolver:  Solving for Ux, Initial residual = 0.0326733, Final residual = 0.00312807, No Iterations 2
smoothSolver:  Solving for Uy, Initial residual = 0.0393337, Final residual = 0.00104198, No Iterations 4
GAMG:  Solving for p, Initial residual = 0.228548, Final residual = 0.0180972, No Iterations 7
time step continuity errors : sum local = 0.000125265, global = -1.52919e-05, cumulative = -7.17904e-05
smoothSolver:  Solving for nuTilda, Initial residual = 0.0256822, Final residual = 0.0016562, No Iterations 2
bounding nuTilda, min: -0.0482761 max: 1.90489 average: 0.0312694
ExecutionTime = 0.72 s  ClockTime = 1 s

Time = 45

smoothSolver:  Solving for Ux, Initial residual = 0.0320024, Final residual = 0.00300525, No Iterations 2
smoothSolver:  Solving for Uy, Initial residual = 0.0391769, Final residual = 0.00111728, No Iterations 4
GAMG:  Solving for p, Initial residual = 0.232778, Final residual = 0.0227512, No Iterations 5
time step continuity errors : sum local = 0.00014847, global = -1.61985e-05, cumulative = -8.7989e-05
smoothSolver:  Solving for nuTilda, Initial residual = 0.0266172, Final residual = 0.00168708, No Iterations 2
bounding nuTilda, min: -0.0744611 max: 1.93708 average: 0.0326447
ExecutionTime = 0.72 s  ClockTime = 1 s

Time = 46

smoothSolver:  Solving for Ux, Initial residual = 0.0314751, Final residual = 0.00296551, No Iterations 2
smoothSolver:  Solving for Uy, Initial residual = 0.0396959, Final residual = 0.00116949, No Iterations 4
GAMG:  Solving for p, Initial residual = 0.22301, Final residual = 0.0220871, No Iterations 5
time step continuity errors : sum local = 0.000140036, global = -8.47477e-06, cumulative = -9.64638e-05
smoothSolver:  Solving for nuTilda, Initial residual = 0.0275494, Final residual = 0.00170395, No Iterations 2
bounding nuTilda, min: -0.0553615 max: 1.9544 average: 0.0339524
ExecutionTime = 0.73 s  ClockTime = 1 s

Time = 47

smoothSolver:  Solving for Ux, Initial residual = 0.031557, Final residual = 0.00300873, No Iterations 2
smoothSolver:  Solving for Uy, Initial residual = 0.0403623, Final residual = 0.00116142, No Iterations 4
GAMG:  Solving for p, Initial residual = 0.214063, Final residual = 0.0213156, No Iterations 5
time step continuity errors : sum local = 0.000132147, global = -3.70373e-06, cumulative = -0.000100167
smoothSolver:  Solving for nuTilda, Initial residual = 0.0286602, Final residual = 0.00178053, No Iterations 2
bounding nuTilda, min: -0.0600191 max: 1.95894 average: 0.0351088
ExecutionTime = 0.75 s  ClockTime = 1 s

Time = 48

smoothSolver:  Solving for Ux, Initial residual = 0.0320564, Final residual = 0.003148, No Iterations 2
smoothSolver:  Solving for Uy, Initial residual = 0.0418755, Final residual = 0.00119113, No Iterations 4
GAMG:  Solving for p, Initial residual = 0.215393, Final residual = 0.0171191, No Iterations 6
time step continuity errors : sum local = 0.000101429, global = 3.62102e-06, cumulative = -9.65465e-05
smoothSolver:  Solving for nuTilda, Initial residual = 0.0295904, Final residual = 0.00187698, No Iterations 2
bounding nuTilda, min: -0.0872034 max: 1.93056 average: 0.0361819
ExecutionTime = 0.75 s  ClockTime = 1 s

Time = 49

smoothSolver:  Solving for Ux, Initial residual = 0.0328735, Final residual = 0.000883916, No Iterations 4
smoothSolver:  Solving for Uy, Initial residual = 0.0434189, Final residual = 0.00122046, No Iterations 4
GAMG:  Solving for p, Initial residual = 0.217829, Final residual = 0.0207825, No Iterations 6
time step continuity errors : sum local = 0.000116604, global = -3.77427e-06, cumulative = -0.000100321
smoothSolver:  Solving for nuTilda, Initial residual = 0.0309086, Final residual = 0.00193163, No Iterations 2
bounding nuTilda, min: -0.0588597 max: 1.92992 average: 0.0371523
ExecutionTime = 0.76 s  ClockTime = 1 s

Time = 50

smoothSolver:  Solving for Ux, Initial residual = 0.0330021, Final residual = 0.000890104, No Iterations 4
smoothSolver:  Solving for Uy, Initial residual = 0.0445749, Final residual = 0.00128253, No Iterations 4
GAMG:  Solving for p, Initial residual = 0.206819, Final residual = 0.0171163, No Iterations 7
time step continuity errors : sum local = 9.3371e-05, global = 1.29308e-05, cumulative = -8.73899e-05
smoothSolver:  Solving for nuTilda, Initial residual = 0.0316956, Final residual = 0.00200352, No Iterations 2
bounding nuTilda, min: -0.0622628 max: 1.90443 average: 0.0379783
ExecutionTime = 0.78 s  ClockTime = 1 s

    functionObjects::momentumError momErr writing field: momentError
    functionObjects::div contErr writing field: div(phi)
    functionObjects::turbulenceFields turbulenceFields1 writing field: turbulenceProperties:nut
    functionObjects::turbulenceFields turbulenceFields1 writing field: turbulenceProperties:nuEff
    functionObjects::turbulenceFields turbulenceFields1 writing field: turbulenceProperties:k
    functionObjects::turbulenceFields turbulenceFields1 writing field: turbulenceProperties:R
    functionObjects::turbulenceFields turbulenceFields1 writing field: turbulenceProperties:I
    functionObjects::turbulenceFields turbulenceFields1 writing field: turbulenceProperties:L
    functionObjects::turbulenceFields turbulenceFields1 writing field: turbulenceProperties:devReff
    functionObjects::turbulenceFields turbulenceFields1 writing field: turbulenceProperties:epsilon

    functionObjects::mag mag1 writing field: magR
Time = 51

smoothSolver:  Solving for Ux, Initial residual = 0.0327886, Final residual = 0.000899891, No Iterations 4
smoothSolver:  Solving for Uy, Initial residual = 0.045349, Final residual = 0.00134504, No Iterations 4
GAMG:  Solving for p, Initial residual = 0.184028, Final residual = 0.0149454, No Iterations 7
time step continuity errors : sum local = 8.24626e-05, global = 7.14768e-06, cumulative = -8.02423e-05
smoothSolver:  Solving for nuTilda, Initial residual = 0.0328119, Final residual = 0.0020691, No Iterations 2
bounding nuTilda, min: -0.0585449 max: 1.87786 average: 0.0386368
ExecutionTime = 0.83 s  ClockTime = 1 s

Time = 52

smoothSolver:  Solving for Ux, Initial residual = 0.0328901, Final residual = 0.000919283, No Iterations 4
smoothSolver:  Solving for Uy, Initial residual = 0.045666, Final residual = 0.00139962, No Iterations 4
GAMG:  Solving for p, Initial residual = 0.167745, Final residual = 0.0159878, No Iterations 6
time step continuity errors : sum local = 9.20775e-05, global = -7.27105e-07, cumulative = -8.09694e-05
smoothSolver:  Solving for nuTilda, Initial residual = 0.03337, Final residual = 0.00206642, No Iterations 2
bounding nuTilda, min: -0.087154 max: 1.84671 average: 0.0391918
ExecutionTime = 0.85 s  ClockTime = 1 s

Time = 53

smoothSolver:  Solving for Ux, Initial residual = 0.0329965, Final residual = 0.000943478, No Iterations 4
smoothSolver:  Solving for Uy, Initial residual = 0.0462058, Final residual = 0.00140632, No Iterations 4
GAMG:  Solving for p, Initial residual = 0.159981, Final residual = 0.0158273, No Iterations 5
time step continuity errors : sum local = 9.35379e-05, global = -4.82965e-06, cumulative = -8.5799e-05
smoothSolver:  Solving for nuTilda, Initial residual = 0.0339943, Final residual = 0.00205907, No Iterations 2
bounding nuTilda, min: -0.070883 max: 1.81237 average: 0.0395723
ExecutionTime = 0.86 s  ClockTime = 1 s

Time = 54

smoothSolver:  Solving for Ux, Initial residual = 0.0331674, Final residual = 0.000953939, No Iterations 4
smoothSolver:  Solving for Uy, Initial residual = 0.0464687, Final residual = 0.00144121, No Iterations 4
GAMG:  Solving for p, Initial residual = 0.156587, Final residual = 0.0133621, No Iterations 5
time step continuity errors : sum local = 7.80856e-05, global = -8.87837e-06, cumulative = -9.46774e-05
smoothSolver:  Solving for nuTilda, Initial residual = 0.0345221, Final residual = 0.00200185, No Iterations 2
bounding nuTilda, min: -0.0674574 max: 1.77617 average: 0.0398611
ExecutionTime = 0.87 s  ClockTime = 1 s

Time = 55

smoothSolver:  Solving for Ux, Initial residual = 0.0331617, Final residual = 0.000940732, No Iterations 4
smoothSolver:  Solving for Uy, Initial residual = 0.0473747, Final residual = 0.00145893, No Iterations 4
GAMG:  Solving for p, Initial residual = 0.154952, Final residual = 0.01341, No Iterations 5
time step continuity errors : sum local = 7.41832e-05, global = -1.25978e-05, cumulative = -0.000107275
smoothSolver:  Solving for nuTilda, Initial residual = 0.0348323, Final residual = 0.00193576, No Iterations 2
bounding nuTilda, min: -0.0744944 max: 1.73712 average: 0.0399454
ExecutionTime = 0.89 s  ClockTime = 1 s

Time = 56

smoothSolver:  Solving for Ux, Initial residual = 0.033218, Final residual = 0.00093455, No Iterations 4
smoothSolver:  Solving for Uy, Initial residual = 0.0483423, Final residual = 0.00151099, No Iterations 4
GAMG:  Solving for p, Initial residual = 0.157771, Final residual = 0.0104163, No Iterations 6
time step continuity errors : sum local = 5.35537e-05, global = 4.36853e-06, cumulative = -0.000102907
smoothSolver:  Solving for nuTilda, Initial residual = 0.0349424, Final residual = 0.00186794, No Iterations 2
bounding nuTilda, min: -0.0630151 max: 1.6931 average: 0.0399072
ExecutionTime = 0.91 s  ClockTime = 1 s

Time = 57

smoothSolver:  Solving for Ux, Initial residual = 0.0332679, Final residual = 0.00331265, No Iterations 2
smoothSolver:  Solving for Uy, Initial residual = 0.0490949, Final residual = 0.00156211, No Iterations 4
GAMG:  Solving for p, Initial residual = 0.167245, Final residual = 0.0146877, No Iterations 6
time step continuity errors : sum local = 7.09912e-05, global = 7.44607e-06, cumulative = -9.54606e-05
smoothSolver:  Solving for nuTilda, Initial residual = 0.0350659, Final residual = 0.00172655, No Iterations 2
bounding nuTilda, min: -0.0620681 max: 1.65921 average: 0.0397126
ExecutionTime = 0.93 s  ClockTime = 1 s

Time = 58

smoothSolver:  Solving for Ux, Initial residual = 0.0335986, Final residual = 0.000958913, No Iterations 4
smoothSolver:  Solving for Uy, Initial residual = 0.0491939, Final residual = 0.00158657, No Iterations 4
GAMG:  Solving for p, Initial residual = 0.168551, Final residual = 0.0153692, No Iterations 6
time step continuity errors : sum local = 7.202e-05, global = 4.31643e-06, cumulative = -9.11441e-05
smoothSolver:  Solving for nuTilda, Initial residual = 0.0349339, Final residual = 0.00161361, No Iterations 2
bounding nuTilda, min: -0.0542342 max: 1.62214 average: 0.0393711
ExecutionTime = 0.95 s  ClockTime = 1 s

Time = 59

smoothSolver:  Solving for Ux, Initial residual = 0.0333583, Final residual = 0.00331416, No Iterations 2
smoothSolver:  Solving for Uy, Initial residual = 0.0485639, Final residual = 0.0015909, No Iterations 4
GAMG:  Solving for p, Initial residual = 0.158182, Final residual = 0.0139902, No Iterations 6
time step continuity errors : sum local = 6.6388e-05, global = 2.68546e-06, cumulative = -8.84587e-05
smoothSolver:  Solving for nuTilda, Initial residual = 0.0348611, Final residual = 0.00154802, No Iterations 2
bounding nuTilda, min: -0.0512526 max: 1.59668 average: 0.0388608
ExecutionTime = 0.97 s  ClockTime = 1 s

Time = 60

smoothSolver:  Solving for Ux, Initial residual = 0.0331233, Final residual = 0.00329211, No Iterations 2
smoothSolver:  Solving for Uy, Initial residual = 0.0477149, Final residual = 0.00158341, No Iterations 4
GAMG:  Solving for p, Initial residual = 0.144214, Final residual = 0.0108866, No Iterations 6
time step continuity errors : sum local = 5.2473e-05, global = 2.09828e-08, cumulative = -8.84377e-05
smoothSolver:  Solving for nuTilda, Initial residual = 0.0345289, Final residual = 0.00152119, No Iterations 2
bounding nuTilda, min: -0.0429867 max: 1.56602 average: 0.0382829
ExecutionTime = 0.98 s  ClockTime = 1 s

Time = 61

smoothSolver:  Solving for Ux, Initial residual = 0.0326622, Final residual = 0.00325683, No Iterations 2
smoothSolver:  Solving for Uy, Initial residual = 0.0465514, Final residual = 0.00156076, No Iterations 4
GAMG:  Solving for p, Initial residual = 0.137652, Final residual = 0.0136499, No Iterations 4
time step continuity errors : sum local = 6.57235e-05, global = -5.24521e-06, cumulative = -9.36829e-05
smoothSolver:  Solving for nuTilda, Initial residual = 0.0342825, Final residual = 0.0015126, No Iterations 2
bounding nuTilda, min: -0.0407203 max: 1.54993 average: 0.0375709
ExecutionTime = 0.99 s  ClockTime = 1 s

Time = 62

smoothSolver:  Solving for Ux, Initial residual = 0.0320286, Final residual = 0.000957965, No Iterations 4
smoothSolver:  Solving for Uy, Initial residual = 0.0450184, Final residual = 0.00150099, No Iterations 4
GAMG:  Solving for p, Initial residual = 0.136107, Final residual = 0.0114516, No Iterations 5
time step continuity errors : sum local = 5.46101e-05, global = 4.63612e-07, cumulative = -9.32193e-05
smoothSolver:  Solving for nuTilda, Initial residual = 0.0337065, Final residual = 0.00147162, No Iterations 2
bounding nuTilda, min: -0.0410821 max: 1.52346 average: 0.0368102
ExecutionTime = 1 s  ClockTime = 1 s

Time = 63

smoothSolver:  Solving for Ux, Initial residual = 0.0311232, Final residual = 0.000939332, No Iterations 4
smoothSolver:  Solving for Uy, Initial residual = 0.0436988, Final residual = 0.00143148, No Iterations 4
GAMG:  Solving for p, Initial residual = 0.13478, Final residual = 0.0134172, No Iterations 5
time step continuity errors : sum local = 6.24798e-05, global = -3.42352e-09, cumulative = -9.32227e-05
smoothSolver:  Solving for nuTilda, Initial residual = 0.0334292, Final residual = 0.00135764, No Iterations 2
bounding nuTilda, min: -0.0488434 max: 1.50244 average: 0.0359288
ExecutionTime = 1.01 s  ClockTime = 1 s

Time = 64

smoothSolver:  Solving for Ux, Initial residual = 0.0302805, Final residual = 0.000924145, No Iterations 4
smoothSolver:  Solving for Uy, Initial residual = 0.0426357, Final residual = 0.001346, No Iterations 4
GAMG:  Solving for p, Initial residual = 0.134171, Final residual = 0.00989458, No Iterations 6
time step continuity errors : sum local = 4.49349e-05, global = -4.89034e-06, cumulative = -9.81131e-05
smoothSolver:  Solving for nuTilda, Initial residual = 0.0329, Final residual = 0.00120864, No Iterations 2
bounding nuTilda, min: -0.0375005 max: 1.49696 average: 0.0350337
ExecutionTime = 1.02 s  ClockTime = 1 s

Time = 65

smoothSolver:  Solving for Ux, Initial residual = 0.0296407, Final residual = 0.000918009, No Iterations 4
smoothSolver:  Solving for Uy, Initial residual = 0.04168, Final residual = 0.00130187, No Iterations 4
GAMG:  Solving for p, Initial residual = 0.131952, Final residual = 0.0103781, No Iterations 6
time step continuity errors : sum local = 4.58751e-05, global = -3.14007e-06, cumulative = -0.000101253
smoothSolver:  Solving for nuTilda, Initial residual = 0.0324575, Final residual = 0.00107734, No Iterations 2
bounding nuTilda, min: -0.0338478 max: 1.49238 average: 0.0340607
ExecutionTime = 1.02 s  ClockTime = 1 s

Time = 66

smoothSolver:  Solving for Ux, Initial residual = 0.029264, Final residual = 0.000920306, No Iterations 4
smoothSolver:  Solving for Uy, Initial residual = 0.040607, Final residual = 0.00129456, No Iterations 4
GAMG:  Solving for p, Initial residual = 0.129323, Final residual = 0.0105838, No Iterations 6
time step continuity errors : sum local = 4.57145e-05, global = -2.27779e-06, cumulative = -0.000103531
smoothSolver:  Solving for nuTilda, Initial residual = 0.0318968, Final residual = 0.000991628, No Iterations 2
bounding nuTilda, min: -0.0326738 max: 1.48694 average: 0.0331151
ExecutionTime = 1.03 s  ClockTime = 1 s

Time = 67

smoothSolver:  Solving for Ux, Initial residual = 0.0288215, Final residual = 0.000918864, No Iterations 4
smoothSolver:  Solving for Uy, Initial residual = 0.0390175, Final residual = 0.00129597, No Iterations 4
GAMG:  Solving for p, Initial residual = 0.129438, Final residual = 0.0128796, No Iterations 5
time step continuity errors : sum local = 5.42517e-05, global = -2.88862e-06, cumulative = -0.00010642
smoothSolver:  Solving for nuTilda, Initial residual = 0.0314668, Final residual = 0.000933376, No Iterations 2
bounding nuTilda, min: -0.0368763 max: 1.49002 average: 0.0321102
ExecutionTime = 1.04 s  ClockTime = 1 s

Time = 68

smoothSolver:  Solving for Ux, Initial residual = 0.028131, Final residual = 0.000904941, No Iterations 4
smoothSolver:  Solving for Uy, Initial residual = 0.0371668, Final residual = 0.00128412, No Iterations 4
GAMG:  Solving for p, Initial residual = 0.128183, Final residual = 0.0114036, No Iterations 5
time step continuity errors : sum local = 4.69542e-05, global = 1.58325e-06, cumulative = -0.000104836
smoothSolver:  Solving for nuTilda, Initial residual = 0.0307947, Final residual = 0.000893353, No Iterations 2
bounding nuTilda, min: -0.0276318 max: 1.48925 average: 0.0311669
ExecutionTime = 1.06 s  ClockTime = 2 s

Time = 69

smoothSolver:  Solving for Ux, Initial residual = 0.0272497, Final residual = 0.000881986, No Iterations 4
smoothSolver:  Solving for Uy, Initial residual = 0.0353641, Final residual = 0.00125655, No Iterations 4
GAMG:  Solving for p, Initial residual = 0.127375, Final residual = 0.010223, No Iterations 5
time step continuity errors : sum local = 4.09358e-05, global = 1.67157e-06, cumulative = -0.000103165
smoothSolver:  Solving for nuTilda, Initial residual = 0.0302524, Final residual = 0.000875655, No Iterations 2
bounding nuTilda, min: -0.041348 max: 1.49372 average: 0.0301909
ExecutionTime = 1.07 s  ClockTime = 2 s

Time = 70

smoothSolver:  Solving for Ux, Initial residual = 0.0262955, Final residual = 0.000853796, No Iterations 4
smoothSolver:  Solving for Uy, Initial residual = 0.0337937, Final residual = 0.00121497, No Iterations 4
GAMG:  Solving for p, Initial residual = 0.123786, Final residual = 0.0112238, No Iterations 5
time step continuity errors : sum local = 4.4429e-05, global = 4.10328e-06, cumulative = -9.90614e-05
smoothSolver:  Solving for nuTilda, Initial residual = 0.0295158, Final residual = 0.000866103, No Iterations 2
bounding nuTilda, min: -0.037214 max: 1.48431 average: 0.029306
ExecutionTime = 1.08 s  ClockTime = 2 s

Time = 71

smoothSolver:  Solving for Ux, Initial residual = 0.0253502, Final residual = 0.000823143, No Iterations 4
smoothSolver:  Solving for Uy, Initial residual = 0.0325733, Final residual = 0.00116875, No Iterations 4
GAMG:  Solving for p, Initial residual = 0.117932, Final residual = 0.00948207, No Iterations 6
time step continuity errors : sum local = 3.76586e-05, global = -3.52866e-06, cumulative = -0.00010259
smoothSolver:  Solving for nuTilda, Initial residual = 0.0289265, Final residual = 0.00086474, No Iterations 2
bounding nuTilda, min: -0.0300773 max: 1.46343 average: 0.0284292
ExecutionTime = 1.08 s  ClockTime = 2 s

Time = 72

smoothSolver:  Solving for Ux, Initial residual = 0.024285, Final residual = 0.00078921, No Iterations 4
smoothSolver:  Solving for Uy, Initial residual = 0.0314031, Final residual = 0.00114597, No Iterations 4
GAMG:  Solving for p, Initial residual = 0.109197, Final residual = 0.00993501, No Iterations 6
time step continuity errors : sum local = 4.07671e-05, global = -3.66066e-06, cumulative = -0.000106251
smoothSolver:  Solving for nuTilda, Initial residual = 0.0280979, Final residual = 0.000863826, No Iterations 2
bounding nuTilda, min: -0.0284692 max: 1.41085 average: 0.0276967
ExecutionTime = 1.09 s  ClockTime = 2 s

Time = 73

smoothSolver:  Solving for Ux, Initial residual = 0.023019, Final residual = 0.000757028, No Iterations 4
smoothSolver:  Solving for Uy, Initial residual = 0.0305747, Final residual = 0.00112189, No Iterations 4
GAMG:  Solving for p, Initial residual = 0.100216, Final residual = 0.00903604, No Iterations 6
time step continuity errors : sum local = 3.83388e-05, global = -2.34112e-06, cumulative = -0.000108592
smoothSolver:  Solving for nuTilda, Initial residual = 0.0276242, Final residual = 0.00086334, No Iterations 2
bounding nuTilda, min: -0.0287439 max: 1.3182 average: 0.0270449
ExecutionTime = 1.1 s  ClockTime = 2 s

Time = 74

smoothSolver:  Solving for Ux, Initial residual = 0.0217004, Final residual = 0.000725, No Iterations 4
smoothSolver:  Solving for Uy, Initial residual = 0.0294591, Final residual = 0.00108675, No Iterations 4
GAMG:  Solving for p, Initial residual = 0.0934618, Final residual = 0.00763539, No Iterations 6
time step continuity errors : sum local = 3.32288e-05, global = -4.97555e-07, cumulative = -0.000109089
smoothSolver:  Solving for nuTilda, Initial residual = 0.0266979, Final residual = 0.000854316, No Iterations 2
bounding nuTilda, min: -0.0219847 max: 1.32721 average: 0.0266006
ExecutionTime = 1.11 s  ClockTime = 2 s

Time = 75

smoothSolver:  Solving for Ux, Initial residual = 0.0204463, Final residual = 0.000688121, No Iterations 4
smoothSolver:  Solving for Uy, Initial residual = 0.028214, Final residual = 0.00103571, No Iterations 4
GAMG:  Solving for p, Initial residual = 0.091454, Final residual = 0.00835236, No Iterations 5
time step continuity errors : sum local = 3.64914e-05, global = 1.04361e-06, cumulative = -0.000108046
smoothSolver:  Solving for nuTilda, Initial residual = 0.0254753, Final residual = 0.000846646, No Iterations 2
bounding nuTilda, min: -0.0270873 max: 1.35052 average: 0.0262898
ExecutionTime = 1.12 s  ClockTime = 2 s

Time = 76

smoothSolver:  Solving for Ux, Initial residual = 0.0193694, Final residual = 0.000644283, No Iterations 4
smoothSolver:  Solving for Uy, Initial residual = 0.0270654, Final residual = 0.000964701, No Iterations 4
GAMG:  Solving for p, Initial residual = 0.0895661, Final residual = 0.00802716, No Iterations 5
time step continuity errors : sum local = 3.517e-05, global = 1.95248e-06, cumulative = -0.000106093
smoothSolver:  Solving for nuTilda, Initial residual = 0.0237654, Final residual = 0.000829789, No Iterations 2
bounding nuTilda, min: -0.0301293 max: 1.37175 average: 0.0262147
ExecutionTime = 1.13 s  ClockTime = 2 s

Time = 77

smoothSolver:  Solving for Ux, Initial residual = 0.0184159, Final residual = 0.000599374, No Iterations 4
smoothSolver:  Solving for Uy, Initial residual = 0.0255435, Final residual = 0.000876843, No Iterations 4
GAMG:  Solving for p, Initial residual = 0.0869427, Final residual = 0.00741531, No Iterations 5
time step continuity errors : sum local = 3.25643e-05, global = 3.00037e-06, cumulative = -0.000103093
smoothSolver:  Solving for nuTilda, Initial residual = 0.0213167, Final residual = 0.000815505, No Iterations 2
bounding nuTilda, min: -0.046519 max: 1.39098 average: 0.0262897
ExecutionTime = 1.14 s  ClockTime = 2 s

Time = 78

smoothSolver:  Solving for Ux, Initial residual = 0.0175836, Final residual = 0.000556676, No Iterations 4
smoothSolver:  Solving for Uy, Initial residual = 0.0237731, Final residual = 0.000789118, No Iterations 4
GAMG:  Solving for p, Initial residual = 0.081846, Final residual = 0.00696315, No Iterations 5
time step continuity errors : sum local = 3.08683e-05, global = 3.79636e-06, cumulative = -9.92966e-05
smoothSolver:  Solving for nuTilda, Initial residual = 0.0182979, Final residual = 0.00079999, No Iterations 2
bounding nuTilda, min: -0.0405646 max: 1.40823 average: 0.026576
ExecutionTime = 1.15 s  ClockTime = 2 s

Time = 79

smoothSolver:  Solving for Ux, Initial residual = 0.0168073, Final residual = 0.000518705, No Iterations 4
smoothSolver:  Solving for Uy, Initial residual = 0.0218651, Final residual = 0.000703568, No Iterations 4
GAMG:  Solving for p, Initial residual = 0.0755352, Final residual = 0.00652184, No Iterations 5
time step continuity errors : sum local = 2.92628e-05, global = 1.53098e-06, cumulative = -9.77657e-05
smoothSolver:  Solving for nuTilda, Initial residual = 0.0156168, Final residual = 0.000795785, No Iterations 2
bounding nuTilda, min: -0.0336752 max: 1.42352 average: 0.0269599
ExecutionTime = 1.16 s  ClockTime = 2 s

Time = 80

smoothSolver:  Solving for Ux, Initial residual = 0.0160833, Final residual = 0.000483527, No Iterations 4
smoothSolver:  Solving for Uy, Initial residual = 0.0196948, Final residual = 0.00062647, No Iterations 4
GAMG:  Solving for p, Initial residual = 0.0704035, Final residual = 0.00619902, No Iterations 5
time step continuity errors : sum local = 2.82724e-05, global = 3.66058e-07, cumulative = -9.73996e-05
smoothSolver:  Solving for nuTilda, Initial residual = 0.01319, Final residual = 0.000788338, No Iterations 2
bounding nuTilda, min: -0.0242836 max: 1.43682 average: 0.0274737
ExecutionTime = 1.17 s  ClockTime = 2 s

Time = 81

smoothSolver:  Solving for Ux, Initial residual = 0.0153698, Final residual = 0.000449983, No Iterations 4
smoothSolver:  Solving for Uy, Initial residual = 0.0175851, Final residual = 0.000551959, No Iterations 4
GAMG:  Solving for p, Initial residual = 0.067622, Final residual = 0.00568906, No Iterations 5
time step continuity errors : sum local = 2.62552e-05, global = 9.00515e-07, cumulative = -9.64991e-05
smoothSolver:  Solving for nuTilda, Initial residual = 0.0115325, Final residual = 0.000782629, No Iterations 2
bounding nuTilda, min: -0.015283 max: 1.44807 average: 0.0280005
ExecutionTime = 1.18 s  ClockTime = 2 s

Time = 82

smoothSolver:  Solving for Ux, Initial residual = 0.0146693, Final residual = 0.000415506, No Iterations 4
smoothSolver:  Solving for Uy, Initial residual = 0.0155205, Final residual = 0.000480425, No Iterations 4
GAMG:  Solving for p, Initial residual = 0.0645074, Final residual = 0.00564661, No Iterations 5
time step continuity errors : sum local = 2.63134e-05, global = 9.69161e-07, cumulative = -9.55299e-05
smoothSolver:  Solving for nuTilda, Initial residual = 0.0102936, Final residual = 0.000769763, No Iterations 2
bounding nuTilda, min: -0.0126024 max: 1.45714 average: 0.0285814
ExecutionTime = 1.18 s  ClockTime = 2 s

Time = 83

smoothSolver:  Solving for Ux, Initial residual = 0.0138612, Final residual = 0.00037864, No Iterations 4
smoothSolver:  Solving for Uy, Initial residual = 0.0136942, Final residual = 0.000421557, No Iterations 4
GAMG:  Solving for p, Initial residual = 0.0606928, Final residual = 0.00562958, No Iterations 5
time step continuity errors : sum local = 2.63028e-05, global = 9.7988e-07, cumulative = -9.455e-05
smoothSolver:  Solving for nuTilda, Initial residual = 0.00965013, Final residual = 0.000759887, No Iterations 2
bounding nuTilda, min: -0.0170334 max: 1.46386 average: 0.0291265
ExecutionTime = 1.19 s  ClockTime = 2 s

Time = 84

smoothSolver:  Solving for Ux, Initial residual = 0.0130009, Final residual = 0.00128404, No Iterations 2
smoothSolver:  Solving for Uy, Initial residual = 0.0123147, Final residual = 0.000373352, No Iterations 4
GAMG:  Solving for p, Initial residual = 0.0562894, Final residual = 0.00464893, No Iterations 6
time step continuity errors : sum local = 2.17399e-05, global = 1.71664e-06, cumulative = -9.28334e-05
smoothSolver:  Solving for nuTilda, Initial residual = 0.00910829, Final residual = 0.000743478, No Iterations 2
bounding nuTilda, min: -0.0141384 max: 1.46873 average: 0.0296819
ExecutionTime = 1.2 s  ClockTime = 2 s

Time = 85

smoothSolver:  Solving for Ux, Initial residual = 0.0122563, Final residual = 0.00121709, No Iterations 2
smoothSolver:  Solving for Uy, Initial residual = 0.0110947, Final residual = 0.000342591, No Iterations 4
GAMG:  Solving for p, Initial residual = 0.0516039, Final residual = 0.00439458, No Iterations 6
time step continuity errors : sum local = 2.06919e-05, global = 1.25445e-06, cumulative = -9.1579e-05
smoothSolver:  Solving for nuTilda, Initial residual = 0.0088059, Final residual = 0.000729642, No Iterations 2
bounding nuTilda, min: -0.015293 max: 1.47274 average: 0.030182
ExecutionTime = 1.21 s  ClockTime = 2 s

Time = 86

smoothSolver:  Solving for Ux, Initial residual = 0.0114774, Final residual = 0.000304081, No Iterations 4
smoothSolver:  Solving for Uy, Initial residual = 0.0103838, Final residual = 0.000319159, No Iterations 4
GAMG:  Solving for p, Initial residual = 0.0481513, Final residual = 0.00401227, No Iterations 5
time step continuity errors : sum local = 1.90669e-05, global = 5.45115e-07, cumulative = -9.10338e-05
smoothSolver:  Solving for nuTilda, Initial residual = 0.008522, Final residual = 0.000715663, No Iterations 2
bounding nuTilda, min: -0.0186804 max: 1.474 average: 0.0306797
ExecutionTime = 1.22 s  ClockTime = 2 s

Time = 87

smoothSolver:  Solving for Ux, Initial residual = 0.0105265, Final residual = 0.0010397, No Iterations 2
smoothSolver:  Solving for Uy, Initial residual = 0.00961928, Final residual = 0.000306284, No Iterations 4
GAMG:  Solving for p, Initial residual = 0.0449198, Final residual = 0.00443041, No Iterations 4
time step continuity errors : sum local = 2.09971e-05, global = 7.09837e-07, cumulative = -9.0324e-05
smoothSolver:  Solving for nuTilda, Initial residual = 0.00833753, Final residual = 0.000703852, No Iterations 2
bounding nuTilda, min: -0.0157039 max: 1.47487 average: 0.0311259
ExecutionTime = 1.24 s  ClockTime = 2 s

Time = 88

smoothSolver:  Solving for Ux, Initial residual = 0.00977686, Final residual = 0.000965217, No Iterations 2
smoothSolver:  Solving for Uy, Initial residual = 0.0088609, Final residual = 0.000295341, No Iterations 4
GAMG:  Solving for p, Initial residual = 0.0424323, Final residual = 0.00423815, No Iterations 4
time step continuity errors : sum local = 2.00674e-05, global = 6.90618e-07, cumulative = -8.96334e-05
smoothSolver:  Solving for nuTilda, Initial residual = 0.00812139, Final residual = 0.000692446, No Iterations 2
bounding nuTilda, min: -0.0173972 max: 1.48319 average: 0.0315679
ExecutionTime = 1.27 s  ClockTime = 2 s

Time = 89

smoothSolver:  Solving for Ux, Initial residual = 0.0091597, Final residual = 0.000904114, No Iterations 2
smoothSolver:  Solving for Uy, Initial residual = 0.00838313, Final residual = 0.000277083, No Iterations 4
GAMG:  Solving for p, Initial residual = 0.0400878, Final residual = 0.00329257, No Iterations 5
time step continuity errors : sum local = 1.55235e-05, global = -3.71069e-07, cumulative = -9.00045e-05
smoothSolver:  Solving for nuTilda, Initial residual = 0.00797345, Final residual = 0.000683684, No Iterations 2
bounding nuTilda, min: -0.0194844 max: 1.48894 average: 0.03196
ExecutionTime = 1.29 s  ClockTime = 2 s

Time = 90

smoothSolver:  Solving for Ux, Initial residual = 0.00866819, Final residual = 0.000859554, No Iterations 2
smoothSolver:  Solving for Uy, Initial residual = 0.00797916, Final residual = 0.000256321, No Iterations 4
GAMG:  Solving for p, Initial residual = 0.0368888, Final residual = 0.00335466, No Iterations 4
time step continuity errors : sum local = 1.57103e-05, global = 5.43225e-07, cumulative = -8.94612e-05
smoothSolver:  Solving for nuTilda, Initial residual = 0.0078291, Final residual = 0.000676771, No Iterations 2
bounding nuTilda, min: -0.0182066 max: 1.49327 average: 0.032352
ExecutionTime = 1.32 s  ClockTime = 2 s

Time = 91

smoothSolver:  Solving for Ux, Initial residual = 0.00821242, Final residual = 0.000815272, No Iterations 2
smoothSolver:  Solving for Uy, Initial residual = 0.00758436, Final residual = 0.000234531, No Iterations 4
GAMG:  Solving for p, Initial residual = 0.0341351, Final residual = 0.00321322, No Iterations 4
time step continuity errors : sum local = 1.49595e-05, global = 4.26308e-07, cumulative = -8.90349e-05
smoothSolver:  Solving for nuTilda, Initial residual = 0.00776454, Final residual = 0.000674949, No Iterations 2
bounding nuTilda, min: -0.0255321 max: 1.49749 average: 0.0327038
ExecutionTime = 1.33 s  ClockTime = 2 s

Time = 92

smoothSolver:  Solving for Ux, Initial residual = 0.00779115, Final residual = 0.000771974, No Iterations 2
smoothSolver:  Solving for Uy, Initial residual = 0.00718167, Final residual = 0.00021482, No Iterations 4
GAMG:  Solving for p, Initial residual = 0.0312271, Final residual = 0.0031042, No Iterations 5
time step continuity errors : sum local = 1.43903e-05, global = -1.05344e-07, cumulative = -8.91403e-05
smoothSolver:  Solving for nuTilda, Initial residual = 0.00766796, Final residual = 0.000674445, No Iterations 2
bounding nuTilda, min: -0.0208506 max: 1.49855 average: 0.033061
ExecutionTime = 1.34 s  ClockTime = 2 s

Time = 93

smoothSolver:  Solving for Ux, Initial residual = 0.00742544, Final residual = 0.000736689, No Iterations 2
smoothSolver:  Solving for Uy, Initial residual = 0.00679194, Final residual = 0.000198649, No Iterations 4
GAMG:  Solving for p, Initial residual = 0.0291036, Final residual = 0.0022482, No Iterations 6
time step continuity errors : sum local = 1.03753e-05, global = 2.49227e-08, cumulative = -8.91153e-05
smoothSolver:  Solving for nuTilda, Initial residual = 0.00764336, Final residual = 0.000677185, No Iterations 2
bounding nuTilda, min: -0.0284958 max: 1.49576 average: 0.0333891
ExecutionTime = 1.35 s  ClockTime = 2 s

Time = 94

smoothSolver:  Solving for Ux, Initial residual = 0.00717219, Final residual = 0.000712041, No Iterations 2
smoothSolver:  Solving for Uy, Initial residual = 0.00646186, Final residual = 0.000183964, No Iterations 4
GAMG:  Solving for p, Initial residual = 0.0271793, Final residual = 0.00268478, No Iterations 5
time step continuity errors : sum local = 1.23702e-05, global = -6.16506e-07, cumulative = -8.97318e-05
smoothSolver:  Solving for nuTilda, Initial residual = 0.00760954, Final residual = 0.000678062, No Iterations 2
bounding nuTilda, min: -0.0227481 max: 1.48828 average: 0.0337231
ExecutionTime = 1.36 s  ClockTime = 2 s

Time = 95

smoothSolver:  Solving for Ux, Initial residual = 0.00699589, Final residual = 0.000698513, No Iterations 2
smoothSolver:  Solving for Uy, Initial residual = 0.00617079, Final residual = 0.000170507, No Iterations 4
GAMG:  Solving for p, Initial residual = 0.0259059, Final residual = 0.00252438, No Iterations 5
time step continuity errors : sum local = 1.16149e-05, global = -9.96357e-07, cumulative = -9.07282e-05
smoothSolver:  Solving for nuTilda, Initial residual = 0.00757192, Final residual = 0.000681553, No Iterations 2
bounding nuTilda, min: -0.0231749 max: 1.4826 average: 0.0340255
ExecutionTime = 1.36 s  ClockTime = 2 s

Time = 96

smoothSolver:  Solving for Ux, Initial residual = 0.00691269, Final residual = 0.000167291, No Iterations 4
smoothSolver:  Solving for Uy, Initial residual = 0.00595841, Final residual = 0.000158489, No Iterations 4
GAMG:  Solving for p, Initial residual = 0.0249033, Final residual = 0.00229206, No Iterations 5
time step continuity errors : sum local = 1.05072e-05, global = -1.18413e-06, cumulative = -9.19123e-05
smoothSolver:  Solving for nuTilda, Initial residual = 0.00753055, Final residual = 0.000686875, No Iterations 2
bounding nuTilda, min: -0.0233961 max: 1.48593 average: 0.0343292
ExecutionTime = 1.37 s  ClockTime = 2 s

Time = 97

smoothSolver:  Solving for Ux, Initial residual = 0.00689527, Final residual = 0.000166878, No Iterations 4
smoothSolver:  Solving for Uy, Initial residual = 0.00590536, Final residual = 0.000574932, No Iterations 2
GAMG:  Solving for p, Initial residual = 0.0245723, Final residual = 0.00221703, No Iterations 5
time step continuity errors : sum local = 1.01244e-05, global = -1.08519e-06, cumulative = -9.29975e-05
smoothSolver:  Solving for nuTilda, Initial residual = 0.00754, Final residual = 0.000695213, No Iterations 2
bounding nuTilda, min: -0.0214705 max: 1.48519 average: 0.0346072
ExecutionTime = 1.39 s  ClockTime = 2 s

Time = 98

smoothSolver:  Solving for Ux, Initial residual = 0.00697666, Final residual = 0.00017264, No Iterations 4
smoothSolver:  Solving for Uy, Initial residual = 0.00599168, Final residual = 0.000161694, No Iterations 4
GAMG:  Solving for p, Initial residual = 0.0229056, Final residual = 0.00215916, No Iterations 5
time step continuity errors : sum local = 9.81038e-06, global = -9.93819e-07, cumulative = -9.39913e-05
smoothSolver:  Solving for nuTilda, Initial residual = 0.00751599, Final residual = 0.000707217, No Iterations 2
bounding nuTilda, min: -0.0195529 max: 1.47917 average: 0.0348767
ExecutionTime = 1.39 s  ClockTime = 2 s

Time = 99

smoothSolver:  Solving for Ux, Initial residual = 0.00718015, Final residual = 0.000183008, No Iterations 4
smoothSolver:  Solving for Uy, Initial residual = 0.00599891, Final residual = 0.000164214, No Iterations 4
GAMG:  Solving for p, Initial residual = 0.0224914, Final residual = 0.00194004, No Iterations 5
time step continuity errors : sum local = 8.76795e-06, global = -6.43502e-07, cumulative = -9.46348e-05
smoothSolver:  Solving for nuTilda, Initial residual = 0.00745645, Final residual = 0.00072092, No Iterations 2
bounding nuTilda, min: -0.0201209 max: 1.46806 average: 0.0351064
ExecutionTime = 1.4 s  ClockTime = 2 s

Time = 100

smoothSolver:  Solving for Ux, Initial residual = 0.00743551, Final residual = 0.000195334, No Iterations 4
smoothSolver:  Solving for Uy, Initial residual = 0.006017, Final residual = 0.000166268, No Iterations 4
GAMG:  Solving for p, Initial residual = 0.0212475, Final residual = 0.00168406, No Iterations 5
time step continuity errors : sum local = 7.58059e-06, global = -4.66148e-08, cumulative = -9.46815e-05
smoothSolver:  Solving for nuTilda, Initial residual = 0.00750454, Final residual = 0.000736095, No Iterations 2
bounding nuTilda, min: -0.0216248 max: 1.46725 average: 0.0353339
ExecutionTime = 1.42 s  ClockTime = 2 s

    functionObjects::momentumError momErr writing field: momentError
    functionObjects::div contErr writing field: div(phi)
    functionObjects::turbulenceFields turbulenceFields1 writing field: turbulenceProperties:nut
    functionObjects::turbulenceFields turbulenceFields1 writing field: turbulenceProperties:nuEff
    functionObjects::turbulenceFields turbulenceFields1 writing field: turbulenceProperties:k
    functionObjects::turbulenceFields turbulenceFields1 writing field: turbulenceProperties:R
    functionObjects::turbulenceFields turbulenceFields1 writing field: turbulenceProperties:I
    functionObjects::turbulenceFields turbulenceFields1 writing field: turbulenceProperties:L
    functionObjects::turbulenceFields turbulenceFields1 writing field: turbulenceProperties:devReff
    functionObjects::turbulenceFields turbulenceFields1 writing field: turbulenceProperties:epsilon

    functionObjects::mag mag1 writing field: magR
Time = 101

smoothSolver:  Solving for Ux, Initial residual = 0.00768253, Final residual = 0.000207928, No Iterations 4
smoothSolver:  Solving for Uy, Initial residual = 0.00611813, Final residual = 0.000171959, No Iterations 4
GAMG:  Solving for p, Initial residual = 0.0200994, Final residual = 0.00153455, No Iterations 5
time step continuity errors : sum local = 6.89879e-06, global = 2.54677e-07, cumulative = -9.44268e-05
smoothSolver:  Solving for nuTilda, Initial residual = 0.00743332, Final residual = 0.000132846, No Iterations 4
bounding nuTilda, min: -0.0328361 max: 1.45722 average: 0.035538
ExecutionTime = 1.49 s  ClockTime = 2 s

Time = 102

smoothSolver:  Solving for Ux, Initial residual = 0.00789859, Final residual = 0.000219956, No Iterations 4
smoothSolver:  Solving for Uy, Initial residual = 0.00627993, Final residual = 0.000183786, No Iterations 4
GAMG:  Solving for p, Initial residual = 0.0191059, Final residual = 0.00188356, No Iterations 4
time step continuity errors : sum local = 8.47889e-06, global = -5.23246e-07, cumulative = -9.495e-05
smoothSolver:  Solving for nuTilda, Initial residual = 0.00745767, Final residual = 0.000137562, No Iterations 4
bounding nuTilda, min: -0.0317723 max: 1.44587 average: 0.035727
ExecutionTime = 1.5 s  ClockTime = 2 s

Time = 103

smoothSolver:  Solving for Ux, Initial residual = 0.00809534, Final residual = 0.000231418, No Iterations 4
smoothSolver:  Solving for Uy, Initial residual = 0.00646576, Final residual = 0.000198656, No Iterations 4
GAMG:  Solving for p, Initial residual = 0.0183979, Final residual = 0.00145283, No Iterations 5
time step continuity errors : sum local = 6.56195e-06, global = 9.10742e-07, cumulative = -9.40393e-05
smoothSolver:  Solving for nuTilda, Initial residual = 0.00740019, Final residual = 0.000141544, No Iterations 4
bounding nuTilda, min: -0.0353758 max: 1.4311 average: 0.0358755
ExecutionTime = 1.51 s  ClockTime = 2 s

Time = 104

smoothSolver:  Solving for Ux, Initial residual = 0.00837023, Final residual = 0.000244929, No Iterations 4
smoothSolver:  Solving for Uy, Initial residual = 0.006723, Final residual = 0.000215353, No Iterations 4
GAMG:  Solving for p, Initial residual = 0.0178758, Final residual = 0.00136181, No Iterations 5
time step continuity errors : sum local = 6.16056e-06, global = -2.53973e-07, cumulative = -9.42933e-05
smoothSolver:  Solving for nuTilda, Initial residual = 0.00745964, Final residual = 0.000145594, No Iterations 4
bounding nuTilda, min: -0.0369481 max: 1.42231 average: 0.0359966
ExecutionTime = 1.52 s  ClockTime = 2 s

Time = 105

smoothSolver:  Solving for Ux, Initial residual = 0.00863719, Final residual = 0.00025818, No Iterations 4
smoothSolver:  Solving for Uy, Initial residual = 0.0069628, Final residual = 0.000229541, No Iterations 4
GAMG:  Solving for p, Initial residual = 0.0174999, Final residual = 0.00135371, No Iterations 5
time step continuity errors : sum local = 6.13775e-06, global = 1.5394e-07, cumulative = -9.41393e-05
smoothSolver:  Solving for nuTilda, Initial residual = 0.00739219, Final residual = 0.000150127, No Iterations 4
bounding nuTilda, min: -0.0460058 max: 1.4099 average: 0.0360763
ExecutionTime = 1.53 s  ClockTime = 2 s

Time = 106

smoothSolver:  Solving for Ux, Initial residual = 0.0088748, Final residual = 0.000269833, No Iterations 4
smoothSolver:  Solving for Uy, Initial residual = 0.00714641, Final residual = 0.000240252, No Iterations 4
GAMG:  Solving for p, Initial residual = 0.0171016, Final residual = 0.0013602, No Iterations 5
time step continuity errors : sum local = 6.17678e-06, global = 6.62183e-07, cumulative = -9.34771e-05
smoothSolver:  Solving for nuTilda, Initial residual = 0.00746469, Final residual = 0.000154253, No Iterations 4
bounding nuTilda, min: -0.035617 max: 1.3957 average: 0.0361269
ExecutionTime = 1.55 s  ClockTime = 2 s

Time = 107

smoothSolver:  Solving for Ux, Initial residual = 0.0090655, Final residual = 0.000279635, No Iterations 4
smoothSolver:  Solving for Uy, Initial residual = 0.00728771, Final residual = 0.000249142, No Iterations 4
GAMG:  Solving for p, Initial residual = 0.0168762, Final residual = 0.00165431, No Iterations 4
time step continuity errors : sum local = 7.52504e-06, global = -6.90858e-07, cumulative = -9.4168e-05
smoothSolver:  Solving for nuTilda, Initial residual = 0.00748635, Final residual = 0.000157238, No Iterations 4
bounding nuTilda, min: -0.0443979 max: 1.38528 average: 0.0361416
ExecutionTime = 1.55 s  ClockTime = 2 s

Time = 108

smoothSolver:  Solving for Ux, Initial residual = 0.00916168, Final residual = 0.000286033, No Iterations 4
smoothSolver:  Solving for Uy, Initial residual = 0.00738452, Final residual = 0.000255523, No Iterations 4
GAMG:  Solving for p, Initial residual = 0.0166148, Final residual = 0.00158738, No Iterations 4
time step continuity errors : sum local = 7.25448e-06, global = -7.99866e-07, cumulative = -9.49679e-05
smoothSolver:  Solving for nuTilda, Initial residual = 0.00748677, Final residual = 0.000160359, No Iterations 4
bounding nuTilda, min: -0.0418388 max: 1.37275 average: 0.0361216
ExecutionTime = 1.58 s  ClockTime = 2 s

Time = 109

smoothSolver:  Solving for Ux, Initial residual = 0.00923843, Final residual = 0.000291859, No Iterations 4
smoothSolver:  Solving for Uy, Initial residual = 0.0075141, Final residual = 0.000264127, No Iterations 4
GAMG:  Solving for p, Initial residual = 0.016264, Final residual = 0.00149979, No Iterations 4
time step continuity errors : sum local = 6.88966e-06, global = -7.86394e-07, cumulative = -9.57542e-05
smoothSolver:  Solving for nuTilda, Initial residual = 0.00753464, Final residual = 0.000164872, No Iterations 4
bounding nuTilda, min: -0.0391346 max: 1.35801 average: 0.0360701
ExecutionTime = 1.6 s  ClockTime = 2 s

Time = 110

smoothSolver:  Solving for Ux, Initial residual = 0.00931035, Final residual = 0.00029745, No Iterations 4
smoothSolver:  Solving for Uy, Initial residual = 0.00766341, Final residual = 0.000273693, No Iterations 4
GAMG:  Solving for p, Initial residual = 0.0160171, Final residual = 0.00146482, No Iterations 4
time step continuity errors : sum local = 6.76759e-06, global = -7.72106e-07, cumulative = -9.65264e-05
smoothSolver:  Solving for nuTilda, Initial residual = 0.0076093, Final residual = 0.000168396, No Iterations 4
bounding nuTilda, min: -0.0362498 max: 1.34813 average: 0.0359845
ExecutionTime = 1.61 s  ClockTime = 2 s

Time = 111

smoothSolver:  Solving for Ux, Initial residual = 0.00936861, Final residual = 0.000302136, No Iterations 4
smoothSolver:  Solving for Uy, Initial residual = 0.00780299, Final residual = 0.000282248, No Iterations 4
GAMG:  Solving for p, Initial residual = 0.015818, Final residual = 0.00150202, No Iterations 4
time step continuity errors : sum local = 6.97747e-06, global = -8.18133e-07, cumulative = -9.73445e-05
smoothSolver:  Solving for nuTilda, Initial residual = 0.00764605, Final residual = 0.000170884, No Iterations 4
bounding nuTilda, min: -0.0414085 max: 1.33289 average: 0.0358611
ExecutionTime = 1.62 s  ClockTime = 2 s

Time = 112

smoothSolver:  Solving for Ux, Initial residual = 0.00940717, Final residual = 0.000305764, No Iterations 4
smoothSolver:  Solving for Uy, Initial residual = 0.0079071, Final residual = 0.000289366, No Iterations 4
GAMG:  Solving for p, Initial residual = 0.0156941, Final residual = 0.00156482, No Iterations 4
time step continuity errors : sum local = 7.30547e-06, global = -8.46296e-07, cumulative = -9.81908e-05
smoothSolver:  Solving for nuTilda, Initial residual = 0.00774072, Final residual = 0.000173581, No Iterations 4
bounding nuTilda, min: -0.0370866 max: 1.32173 average: 0.0357101
ExecutionTime = 1.63 s  ClockTime = 2 s

Time = 113

smoothSolver:  Solving for Ux, Initial residual = 0.00942239, Final residual = 0.000307448, No Iterations 4
smoothSolver:  Solving for Uy, Initial residual = 0.00798526, Final residual = 0.00029587, No Iterations 4
GAMG:  Solving for p, Initial residual = 0.0155014, Final residual = 0.00130129, No Iterations 5
time step continuity errors : sum local = 6.1029e-06, global = 4.52652e-07, cumulative = -9.77381e-05
smoothSolver:  Solving for nuTilda, Initial residual = 0.00776312, Final residual = 0.000176208, No Iterations 4
bounding nuTilda, min: -0.0331168 max: 1.30866 average: 0.0355218
ExecutionTime = 1.64 s  ClockTime = 2 s

Time = 114

smoothSolver:  Solving for Ux, Initial residual = 0.00940951, Final residual = 0.000308371, No Iterations 4
smoothSolver:  Solving for Uy, Initial residual = 0.00808076, Final residual = 0.000303023, No Iterations 4
GAMG:  Solving for p, Initial residual = 0.0151896, Final residual = 0.0015076, No Iterations 4
time step continuity errors : sum local = 7.09802e-06, global = -7.68091e-07, cumulative = -9.85062e-05
smoothSolver:  Solving for nuTilda, Initial residual = 0.00785345, Final residual = 0.000177355, No Iterations 4
bounding nuTilda, min: -0.0299118 max: 1.29432 average: 0.0353044
ExecutionTime = 1.65 s  ClockTime = 2 s

Time = 115

smoothSolver:  Solving for Ux, Initial residual = 0.00932248, Final residual = 0.000305161, No Iterations 4
smoothSolver:  Solving for Uy, Initial residual = 0.00810484, Final residual = 0.000305193, No Iterations 4
GAMG:  Solving for p, Initial residual = 0.015047, Final residual = 0.00149746, No Iterations 4
time step continuity errors : sum local = 7.09016e-06, global = -7.89937e-07, cumulative = -9.92962e-05
smoothSolver:  Solving for nuTilda, Initial residual = 0.00792866, Final residual = 0.000178267, No Iterations 4
bounding nuTilda, min: -0.0321158 max: 1.2834 average: 0.0350479
ExecutionTime = 1.71 s  ClockTime = 2 s

Time = 116

smoothSolver:  Solving for Ux, Initial residual = 0.00923991, Final residual = 0.000300847, No Iterations 4
smoothSolver:  Solving for Uy, Initial residual = 0.00810778, Final residual = 0.000306783, No Iterations 4
GAMG:  Solving for p, Initial residual = 0.0150538, Final residual = 0.00122706, No Iterations 5
time step continuity errors : sum local = 5.84851e-06, global = 6.61874e-07, cumulative = -9.86343e-05
smoothSolver:  Solving for nuTilda, Initial residual = 0.0080145, Final residual = 0.00017958, No Iterations 4
bounding nuTilda, min: -0.0304735 max: 1.26909 average: 0.0347712
ExecutionTime = 1.72 s  ClockTime = 2 s

Time = 117

smoothSolver:  Solving for Ux, Initial residual = 0.00919792, Final residual = 0.00029698, No Iterations 4
smoothSolver:  Solving for Uy, Initial residual = 0.00813629, Final residual = 0.000310249, No Iterations 4
GAMG:  Solving for p, Initial residual = 0.0147937, Final residual = 0.00144282, No Iterations 4
time step continuity errors : sum local = 6.92751e-06, global = -9.23864e-07, cumulative = -9.95581e-05
smoothSolver:  Solving for nuTilda, Initial residual = 0.00813618, Final residual = 0.000179454, No Iterations 4
bounding nuTilda, min: -0.0283338 max: 1.25775 average: 0.0344611
ExecutionTime = 1.73 s  ClockTime = 2 s

Time = 118

smoothSolver:  Solving for Ux, Initial residual = 0.00910326, Final residual = 0.000290956, No Iterations 4
smoothSolver:  Solving for Uy, Initial residual = 0.00809188, Final residual = 0.000309439, No Iterations 4
GAMG:  Solving for p, Initial residual = 0.0145012, Final residual = 0.00143816, No Iterations 4
time step continuity errors : sum local = 6.96042e-06, global = -1.0438e-06, cumulative = -0.000100602
smoothSolver:  Solving for nuTilda, Initial residual = 0.00824734, Final residual = 0.000178439, No Iterations 4
bounding nuTilda, min: -0.0277049 max: 1.24504 average: 0.0341272
ExecutionTime = 1.74 s  ClockTime = 2 s

Time = 119

[...]
ExecutionTime = 6.23 s  ClockTime = 7 s

Time = 472

smoothSolver:  Solving for Ux, Initial residual = 5.34634e-06, Final residual = 2.02176e-07, No Iterations 2
smoothSolver:  Solving for Uy, Initial residual = 1.55694e-06, Final residual = 8.46686e-08, No Iterations 2
GAMG:  Solving for p, Initial residual = 7.5239e-05, Final residual = 6.21865e-06, No Iterations 4
time step continuity errors : sum local = 3.79335e-08, global = -4.91301e-10, cumulative = -0.000100966
smoothSolver:  Solving for nuTilda, Initial residual = 0.00132323, Final residual = 4.67993e-06, No Iterations 2
bounding nuTilda, min: -0.00543017 max: 0.380288 average: 0.0101382
ExecutionTime = 6.24 s  ClockTime = 7 s

Time = 473

smoothSolver:  Solving for Ux, Initial residual = 5.14201e-06, Final residual = 1.93342e-07, No Iterations 2
smoothSolver:  Solving for Uy, Initial residual = 1.60674e-06, Final residual = 8.69954e-08, No Iterations 2
GAMG:  Solving for p, Initial residual = 7.58602e-05, Final residual = 6.20554e-06, No Iterations 4
time step continuity errors : sum local = 3.78594e-08, global = 3.84246e-10, cumulative = -0.000100966
smoothSolver:  Solving for nuTilda, Initial residual = 0.0011472, Final residual = 3.8171e-06, No Iterations 2
bounding nuTilda, min: -0.00657254 max: 0.380288 average: 0.0101401
ExecutionTime = 6.25 s  ClockTime = 7 s

Time = 474

smoothSolver:  Solving for Ux, Initial residual = 5.36283e-06, Final residual = 2.04787e-07, No Iterations 2
smoothSolver:  Solving for Uy, Initial residual = 1.61527e-06, Final residual = 8.57061e-08, No Iterations 2
GAMG:  Solving for p, Initial residual = 7.36312e-05, Final residual = 6.38702e-06, No Iterations 4
time step continuity errors : sum local = 3.89602e-08, global = -4.11926e-10, cumulative = -0.000100966
smoothSolver:  Solving for nuTilda, Initial residual = 0.00127478, Final residual = 4.52214e-06, No Iterations 2
bounding nuTilda, min: -0.00495989 max: 0.380288 average: 0.0101379
ExecutionTime = 6.25 s  ClockTime = 7 s

Time = 475

smoothSolver:  Solving for Ux, Initial residual = 5.04919e-06, Final residual = 1.9028e-07, No Iterations 2
smoothSolver:  Solving for Uy, Initial residual = 1.55915e-06, Final residual = 8.54251e-08, No Iterations 2
GAMG:  Solving for p, Initial residual = 7.69858e-05, Final residual = 6.27277e-06, No Iterations 4
time step continuity errors : sum local = 3.82695e-08, global = 4.96896e-10, cumulative = -0.000100966
smoothSolver:  Solving for nuTilda, Initial residual = 0.00113406, Final residual = 3.67486e-06, No Iterations 2
bounding nuTilda, min: -0.00657466 max: 0.380288 average: 0.0101384
ExecutionTime = 6.26 s  ClockTime = 7 s

Time = 476

smoothSolver:  Solving for Ux, Initial residual = 5.40807e-06, Final residual = 2.01433e-07, No Iterations 2
smoothSolver:  Solving for Uy, Initial residual = 1.57208e-06, Final residual = 8.33985e-08, No Iterations 2
GAMG:  Solving for p, Initial residual = 7.29933e-05, Final residual = 6.44211e-06, No Iterations 4
time step continuity errors : sum local = 3.92963e-08, global = -3.88003e-10, cumulative = -0.000100966
smoothSolver:  Solving for nuTilda, Initial residual = 0.00131964, Final residual = 4.653e-06, No Iterations 2
bounding nuTilda, min: -0.00496092 max: 0.380288 average: 0.0101391
ExecutionTime = 6.27 s  ClockTime = 7 s

Time = 477

smoothSolver:  Solving for Ux, Initial residual = 5.08106e-06, Final residual = 1.97028e-07, No Iterations 2
smoothSolver:  Solving for Uy, Initial residual = 1.6141e-06, Final residual = 9.05481e-08, No Iterations 2
GAMG:  Solving for p, Initial residual = 7.43218e-05, Final residual = 6.30384e-06, No Iterations 4
time step continuity errors : sum local = 3.84591e-08, global = 4.62048e-10, cumulative = -0.000100965
smoothSolver:  Solving for nuTilda, Initial residual = 0.00113215, Final residual = 3.94792e-06, No Iterations 2
bounding nuTilda, min: -0.00657262 max: 0.380288 average: 0.0101395
ExecutionTime = 6.28 s  ClockTime = 7 s

Time = 478

smoothSolver:  Solving for Ux, Initial residual = 5.18237e-06, Final residual = 1.92967e-07, No Iterations 2
smoothSolver:  Solving for Uy, Initial residual = 1.47999e-06, Final residual = 7.83557e-08, No Iterations 2
GAMG:  Solving for p, Initial residual = 7.42487e-05, Final residual = 6.19953e-06, No Iterations 4
time step continuity errors : sum local = 3.78168e-08, global = -4.4004e-10, cumulative = -0.000100966
smoothSolver:  Solving for nuTilda, Initial residual = 0.00128861, Final residual = 4.41589e-06, No Iterations 2
bounding nuTilda, min: -0.00542911 max: 0.380289 average: 0.0101375
ExecutionTime = 6.28 s  ClockTime = 7 s

Time = 479

smoothSolver:  Solving for Ux, Initial residual = 5.01344e-06, Final residual = 2.00504e-07, No Iterations 2
smoothSolver:  Solving for Uy, Initial residual = 1.6243e-06, Final residual = 9.34644e-08, No Iterations 2
GAMG:  Solving for p, Initial residual = 7.41527e-05, Final residual = 6.27885e-06, No Iterations 4
time step continuity errors : sum local = 3.83067e-08, global = 3.93787e-10, cumulative = -0.000100965
smoothSolver:  Solving for nuTilda, Initial residual = 0.0011354, Final residual = 3.65856e-06, No Iterations 2
bounding nuTilda, min: -0.00657473 max: 0.380289 average: 0.0101392
ExecutionTime = 6.3 s  ClockTime = 7 s

Time = 480

smoothSolver:  Solving for Ux, Initial residual = 5.18376e-06, Final residual = 1.9182e-07, No Iterations 2
smoothSolver:  Solving for Uy, Initial residual = 1.51736e-06, Final residual = 7.91178e-08, No Iterations 2
GAMG:  Solving for p, Initial residual = 7.29806e-05, Final residual = 6.26452e-06, No Iterations 4
time step continuity errors : sum local = 3.82131e-08, global = -4.44796e-10, cumulative = -0.000100966
smoothSolver:  Solving for nuTilda, Initial residual = 0.00130384, Final residual = 4.77129e-06, No Iterations 2
bounding nuTilda, min: -0.00496092 max: 0.380289 average: 0.0101379
ExecutionTime = 6.3 s  ClockTime = 7 s

Time = 481

smoothSolver:  Solving for Ux, Initial residual = 5.07028e-06, Final residual = 1.95787e-07, No Iterations 2
smoothSolver:  Solving for Uy, Initial residual = 1.52335e-06, Final residual = 8.65484e-08, No Iterations 2
GAMG:  Solving for p, Initial residual = 7.69368e-05, Final residual = 6.31117e-06, No Iterations 4
time step continuity errors : sum local = 3.8504e-08, global = 4.53224e-10, cumulative = -0.000100965
smoothSolver:  Solving for nuTilda, Initial residual = 0.00115024, Final residual = 3.83993e-06, No Iterations 2
bounding nuTilda, min: -0.00657264 max: 0.380289 average: 0.0101392
ExecutionTime = 6.31 s  ClockTime = 7 s

Time = 482

smoothSolver:  Solving for Ux, Initial residual = 5.31759e-06, Final residual = 1.99687e-07, No Iterations 2
smoothSolver:  Solving for Uy, Initial residual = 1.63213e-06, Final residual = 8.50266e-08, No Iterations 2
GAMG:  Solving for p, Initial residual = 7.47076e-05, Final residual = 6.38245e-06, No Iterations 4
time step continuity errors : sum local = 3.89323e-08, global = -4.22298e-10, cumulative = -0.000100966
smoothSolver:  Solving for nuTilda, Initial residual = 0.00128547, Final residual = 4.39789e-06, No Iterations 2
bounding nuTilda, min: -0.00495988 max: 0.380289 average: 0.0101384
ExecutionTime = 6.32 s  ClockTime = 7 s

Time = 483

smoothSolver:  Solving for Ux, Initial residual = 5.01884e-06, Final residual = 1.94722e-07, No Iterations 2
smoothSolver:  Solving for Uy, Initial residual = 1.51981e-06, Final residual = 8.3338e-08, No Iterations 2
GAMG:  Solving for p, Initial residual = 7.41929e-05, Final residual = 6.31589e-06, No Iterations 4
time step continuity errors : sum local = 3.85326e-08, global = 4.7619e-10, cumulative = -0.000100965
smoothSolver:  Solving for nuTilda, Initial residual = 0.0011235, Final residual = 3.78353e-06, No Iterations 2
bounding nuTilda, min: -0.00657471 max: 0.380289 average: 0.0101388
ExecutionTime = 6.33 s  ClockTime = 7 s

Time = 484

smoothSolver:  Solving for Ux, Initial residual = 5.26935e-06, Final residual = 1.98033e-07, No Iterations 2
smoothSolver:  Solving for Uy, Initial residual = 1.56071e-06, Final residual = 8.61157e-08, No Iterations 2
GAMG:  Solving for p, Initial residual = 7.58574e-05, Final residual = 6.21717e-06, No Iterations 4
time step continuity errors : sum local = 3.79243e-08, global = -3.98676e-10, cumulative = -0.000100966
smoothSolver:  Solving for nuTilda, Initial residual = 0.00131852, Final residual = 4.67599e-06, No Iterations 2
bounding nuTilda, min: -0.00543075 max: 0.380289 average: 0.0101379
ExecutionTime = 6.34 s  ClockTime = 7 s

Time = 485

smoothSolver:  Solving for Ux, Initial residual = 5.18171e-06, Final residual = 1.95909e-07, No Iterations 2
smoothSolver:  Solving for Uy, Initial residual = 1.61078e-06, Final residual = 8.5852e-08, No Iterations 2
GAMG:  Solving for p, Initial residual = 7.63298e-05, Final residual = 6.33496e-06, No Iterations 4
time step continuity errors : sum local = 3.8649e-08, global = 4.07397e-10, cumulative = -0.000100965
smoothSolver:  Solving for nuTilda, Initial residual = 0.00114831, Final residual = 3.81857e-06, No Iterations 2
bounding nuTilda, min: -0.00657261 max: 0.380289 average: 0.01014
ExecutionTime = 6.35 s  ClockTime = 7 s

Time = 486

smoothSolver:  Solving for Ux, Initial residual = 5.20492e-06, Final residual = 1.96013e-07, No Iterations 2
smoothSolver:  Solving for Uy, Initial residual = 1.51372e-06, Final residual = 8.25758e-08, No Iterations 2
GAMG:  Solving for p, Initial residual = 7.39717e-05, Final residual = 6.22127e-06, No Iterations 4
time step continuity errors : sum local = 3.79493e-08, global = -4.57535e-10, cumulative = -0.000100966
smoothSolver:  Solving for nuTilda, Initial residual = 0.00127426, Final residual = 4.52913e-06, No Iterations 2
bounding nuTilda, min: -0.00495984 max: 0.380289 average: 0.0101378
ExecutionTime = 6.36 s  ClockTime = 8 s

Time = 487

smoothSolver:  Solving for Ux, Initial residual = 5.04125e-06, Final residual = 1.99049e-07, No Iterations 2
smoothSolver:  Solving for Uy, Initial residual = 1.54553e-06, Final residual = 8.78325e-08, No Iterations 2
GAMG:  Solving for p, Initial residual = 7.56188e-05, Final residual = 6.39636e-06, No Iterations 4
time step continuity errors : sum local = 3.90238e-08, global = 4.26016e-10, cumulative = -0.000100965
smoothSolver:  Solving for nuTilda, Initial residual = 0.00113514, Final residual = 3.6657e-06, No Iterations 2
bounding nuTilda, min: -0.00657469 max: 0.380289 average: 0.0101385
ExecutionTime = 6.38 s  ClockTime = 8 s

Time = 488

smoothSolver:  Solving for Ux, Initial residual = 5.34041e-06, Final residual = 2.02563e-07, No Iterations 2
smoothSolver:  Solving for Uy, Initial residual = 1.6202e-06, Final residual = 8.46667e-08, No Iterations 2
GAMG:  Solving for p, Initial residual = 7.45414e-05, Final residual = 6.35906e-06, No Iterations 4
time step continuity errors : sum local = 3.87897e-08, global = -4.38733e-10, cumulative = -0.000100966
smoothSolver:  Solving for nuTilda, Initial residual = 0.00131861, Final residual = 4.66856e-06, No Iterations 2
bounding nuTilda, min: -0.00496086 max: 0.380289 average: 0.0101388
ExecutionTime = 6.39 s  ClockTime = 8 s

Time = 489

smoothSolver:  Solving for Ux, Initial residual = 5.09206e-06, Final residual = 1.92684e-07, No Iterations 2
smoothSolver:  Solving for Uy, Initial residual = 1.5618e-06, Final residual = 8.5654e-08, No Iterations 2
GAMG:  Solving for p, Initial residual = 7.57744e-05, Final residual = 6.24542e-06, No Iterations 4
time step continuity errors : sum local = 3.81026e-08, global = 4.77786e-10, cumulative = -0.000100965
smoothSolver:  Solving for nuTilda, Initial residual = 0.00113111, Final residual = 3.95608e-06, No Iterations 2
bounding nuTilda, min: -0.00657261 max: 0.380289 average: 0.0101391
ExecutionTime = 6.4 s  ClockTime = 8 s

Time = 490

smoothSolver:  Solving for Ux, Initial residual = 5.3788e-06, Final residual = 2.043e-07, No Iterations 2
smoothSolver:  Solving for Uy, Initial residual = 1.5796e-06, Final residual = 8.63889e-08, No Iterations 2
GAMG:  Solving for p, Initial residual = 7.47442e-05, Final residual = 6.28268e-06, No Iterations 4
time step continuity errors : sum local = 3.83239e-08, global = -3.96918e-10, cumulative = -0.000100966
smoothSolver:  Solving for nuTilda, Initial residual = 0.00129249, Final residual = 4.41718e-06, No Iterations 2
bounding nuTilda, min: -0.00543118 max: 0.380289 average: 0.0101376
ExecutionTime = 6.42 s  ClockTime = 8 s

Time = 491

smoothSolver:  Solving for Ux, Initial residual = 5.11197e-06, Final residual = 1.94744e-07, No Iterations 2
smoothSolver:  Solving for Uy, Initial residual = 1.60174e-06, Final residual = 8.62069e-08, No Iterations 2
GAMG:  Solving for p, Initial residual = 7.57335e-05, Final residual = 6.19101e-06, No Iterations 4
time step continuity errors : sum local = 3.77707e-08, global = 4.21354e-10, cumulative = -0.000100965
smoothSolver:  Solving for nuTilda, Initial residual = 0.00113564, Final residual = 3.67017e-06, No Iterations 2
bounding nuTilda, min: -0.00657471 max: 0.380289 average: 0.0101394
ExecutionTime = 6.43 s  ClockTime = 8 s

Time = 492

smoothSolver:  Solving for Ux, Initial residual = 5.27533e-06, Final residual = 1.98061e-07, No Iterations 2
smoothSolver:  Solving for Uy, Initial residual = 1.51078e-06, Final residual = 8.20289e-08, No Iterations 2
GAMG:  Solving for p, Initial residual = 7.37148e-05, Final residual = 6.24216e-06, No Iterations 4
time step continuity errors : sum local = 3.80767e-08, global = -4.75175e-10, cumulative = -0.000100966
smoothSolver:  Solving for nuTilda, Initial residual = 0.00130562, Final residual = 4.76088e-06, No Iterations 2
bounding nuTilda, min: -0.00496085 max: 0.380289 average: 0.0101383
ExecutionTime = 6.44 s  ClockTime = 8 s

Time = 493

smoothSolver:  Solving for Ux, Initial residual = 5.03251e-06, Final residual = 1.98867e-07, No Iterations 2
smoothSolver:  Solving for Uy, Initial residual = 1.59551e-06, Final residual = 8.97076e-08, No Iterations 2
GAMG:  Solving for p, Initial residual = 7.60867e-05, Final residual = 6.40706e-06, No Iterations 4
time step continuity errors : sum local = 3.90891e-08, global = 3.70164e-10, cumulative = -0.000100965
smoothSolver:  Solving for nuTilda, Initial residual = 0.00114296, Final residual = 3.83062e-06, No Iterations 2
bounding nuTilda, min: -0.00657261 max: 0.380289 average: 0.0101388
ExecutionTime = 6.45 s  ClockTime = 8 s

Time = 494

smoothSolver:  Solving for Ux, Initial residual = 5.31069e-06, Final residual = 1.93258e-07, No Iterations 2
smoothSolver:  Solving for Uy, Initial residual = 1.54981e-06, Final residual = 8.13881e-08, No Iterations 2
GAMG:  Solving for p, Initial residual = 7.3176e-05, Final residual = 6.28584e-06, No Iterations 4
time step continuity errors : sum local = 3.83432e-08, global = -5.27103e-10, cumulative = -0.000100966
smoothSolver:  Solving for nuTilda, Initial residual = 0.00128821, Final residual = 4.40145e-06, No Iterations 2
bounding nuTilda, min: -0.00495981 max: 0.380289 average: 0.0101383
ExecutionTime = 6.47 s  ClockTime = 8 s

Time = 495

smoothSolver:  Solving for Ux, Initial residual = 4.95619e-06, Final residual = 1.95859e-07, No Iterations 2
smoothSolver:  Solving for Uy, Initial residual = 1.49171e-06, Final residual = 8.60169e-08, No Iterations 2
GAMG:  Solving for p, Initial residual = 7.38212e-05, Final residual = 6.32985e-06, No Iterations 4
time step continuity errors : sum local = 3.86179e-08, global = 4.01022e-10, cumulative = -0.000100966
smoothSolver:  Solving for nuTilda, Initial residual = 0.00112252, Final residual = 3.77279e-06, No Iterations 2
bounding nuTilda, min: -0.00657465 max: 0.380288 average: 0.0101387
ExecutionTime = 6.48 s  ClockTime = 8 s

Time = 496

smoothSolver:  Solving for Ux, Initial residual = 5.29014e-06, Final residual = 2.0032e-07, No Iterations 2
smoothSolver:  Solving for Uy, Initial residual = 1.61903e-06, Final residual = 8.75643e-08, No Iterations 2
GAMG:  Solving for p, Initial residual = 7.58881e-05, Final residual = 6.28333e-06, No Iterations 4
time step continuity errors : sum local = 3.83279e-08, global = -3.95999e-10, cumulative = -0.000100966
smoothSolver:  Solving for nuTilda, Initial residual = 0.00132231, Final residual = 4.68206e-06, No Iterations 2
bounding nuTilda, min: -0.00543042 max: 0.380288 average: 0.0101381
ExecutionTime = 6.49 s  ClockTime = 8 s

Time = 497

smoothSolver:  Solving for Ux, Initial residual = 5.02907e-06, Final residual = 1.88892e-07, No Iterations 2
smoothSolver:  Solving for Uy, Initial residual = 1.50941e-06, Final residual = 7.931e-08, No Iterations 2
GAMG:  Solving for p, Initial residual = 7.68745e-05, Final residual = 6.23621e-06, No Iterations 4
time step continuity errors : sum local = 3.80463e-08, global = 4.86669e-10, cumulative = -0.000100966
smoothSolver:  Solving for nuTilda, Initial residual = 0.00114379, Final residual = 3.82626e-06, No Iterations 2
bounding nuTilda, min: -0.00657251 max: 0.380288 average: 0.0101397
ExecutionTime = 6.51 s  ClockTime = 8 s

Time = 498

smoothSolver:  Solving for Ux, Initial residual = 5.43447e-06, Final residual = 2.0583e-07, No Iterations 2
smoothSolver:  Solving for Uy, Initial residual = 1.63604e-06, Final residual = 9.10183e-08, No Iterations 2
GAMG:  Solving for p, Initial residual = 7.37827e-05, Final residual = 6.332e-06, No Iterations 4
time step continuity errors : sum local = 3.86246e-08, global = -3.56572e-10, cumulative = -0.000100966
smoothSolver:  Solving for nuTilda, Initial residual = 0.00127807, Final residual = 4.51384e-06, No Iterations 2
bounding nuTilda, min: -0.00495973 max: 0.380288 average: 0.0101378
ExecutionTime = 6.52 s  ClockTime = 8 s

Time = 499

smoothSolver:  Solving for Ux, Initial residual = 5.04496e-06, Final residual = 1.90667e-07, No Iterations 2
smoothSolver:  Solving for Uy, Initial residual = 1.53367e-06, Final residual = 8.03369e-08, No Iterations 2
GAMG:  Solving for p, Initial residual = 7.72694e-05, Final residual = 6.3696e-06, No Iterations 4
time step continuity errors : sum local = 3.88604e-08, global = 4.78915e-10, cumulative = -0.000100965
smoothSolver:  Solving for nuTilda, Initial residual = 0.00113505, Final residual = 3.67466e-06, No Iterations 2
bounding nuTilda, min: -0.00657453 max: 0.380287 average: 0.0101386
ExecutionTime = 6.54 s  ClockTime = 8 s

Time = 500

smoothSolver:  Solving for Ux, Initial residual = 5.33719e-06, Final residual = 2.01984e-07, No Iterations 2
smoothSolver:  Solving for Uy, Initial residual = 1.59033e-06, Final residual = 8.77452e-08, No Iterations 2
GAMG:  Solving for p, Initial residual = 7.46763e-05, Final residual = 6.34094e-06, No Iterations 4
time step continuity errors : sum local = 3.86792e-08, global = -4.64708e-10, cumulative = -0.000100966
smoothSolver:  Solving for nuTilda, Initial residual = 0.00131627, Final residual = 4.65446e-06, No Iterations 2
bounding nuTilda, min: -0.00496073 max: 0.380287 average: 0.0101389
ExecutionTime = 6.56 s  ClockTime = 8 s

    functionObjects::momentumError momErr writing field: momentError
    functionObjects::div contErr writing field: div(phi)
    functionObjects::turbulenceFields turbulenceFields1 writing field: turbulenceProperties:nut
    functionObjects::turbulenceFields turbulenceFields1 writing field: turbulenceProperties:nuEff
    functionObjects::turbulenceFields turbulenceFields1 writing field: turbulenceProperties:k
    functionObjects::turbulenceFields turbulenceFields1 writing field: turbulenceProperties:R
    functionObjects::turbulenceFields turbulenceFields1 writing field: turbulenceProperties:I
    functionObjects::turbulenceFields turbulenceFields1 writing field: turbulenceProperties:L
    functionObjects::turbulenceFields turbulenceFields1 writing field: turbulenceProperties:devReff
    functionObjects::turbulenceFields turbulenceFields1 writing field: turbulenceProperties:epsilon

    functionObjects::mag mag1 writing field: magR
End

Finalising parallel run
